geometry optimzed in LAMMPS
_audit_creation_date              2020-12-01 
_audit_creation_method            'lammps2cif' 
_symmetry_space_group_name_H-M    'P1' 
_symmetry_Int_Tables_number       1 
_symmetry_cell_setting            triclinic 
loop_ 
_symmetry_equiv_pos_as_xyz 
  x,y,z 
_cell_length_a                    40.90307334 
_cell_length_b                    41.03489695630054 
_cell_length_c                    68.32917158020035 
_cell_angle_alpha                 89.92183254780545 
_cell_angle_beta                  89.46312863345491 
_cell_angle_gamma                 90.22098978647828 
loop_ 
_atom_site_label 
_atom_site_type_symbol 
_atom_site_fract_x 
_atom_site_fract_y 
_atom_site_fract_z 
_atom_site_charge 
C1          C  0.25440615  0.04477046  0.23990265     0.86000
C2          C  0.28554337  0.03996417  0.25221226    -0.54300
C3          C  0.28709429  0.51084164  0.26173740     0.08900
C4          C  0.25634199  0.48939676  0.25905308     0.19800
C5          C  0.25325131  0.01426505  0.22685365    -0.55000
C6          C  0.25424799  0.48539251  0.23673431     0.09000
C7          C  0.22691313  0.04043281  0.25508858    -0.54500
C8          C  0.22712320  0.51138336  0.26468171     0.09600
H9          H  0.30507611  0.05747039  0.25394673     0.14100
H10         H  0.25656220  0.46606629  0.26726331    -0.00200
H11         H  0.25213401  0.51546889  0.21099568     0.14400
H12         H  0.20878899  0.05896875  0.25822542     0.14200
N13         N  0.44809962  0.28272166  0.00096528    -0.37100
N14         N  0.99827577  0.28367035  0.97034152    -0.57700
N15         N  0.04924068  0.28538995  0.99980563    -0.37100
N16         N  0.99905141  0.28063682  0.03036915    -0.57700
C17         C  0.42920299  0.27693358  0.98518517     0.26500
C18         C  0.42952084  0.27720977  0.01712035     0.26500
C19         C  0.06757017  0.28060053  0.98349744     0.26500
C20         C  0.06794779  0.27747394  0.01531358     0.26500
C21         C  0.47147326  0.28630410  0.95903977     0.35100
C22         C  0.02435534  0.28943095  0.95852980     0.35100
C23         C  0.47287584  0.28367501  0.04242599     0.35100
C24         C  0.02576883  0.28321706  0.04174812     0.35100
C25         C  0.39791001  0.26850651  0.99140569    -0.22400
C26         C  0.39808446  0.26877209  0.01154350    -0.22400
C27         C  0.09858929  0.27040459  0.98872952    -0.22400
C28         C  0.09881952  0.26843009  0.00881376    -0.22400
C29         C  0.48061468  0.29360036  0.93993140    -0.23500
C30         C  0.01408960  0.29573725  0.93963019    -0.23500
C31         C  0.48303209  0.28796425  0.06155464    -0.23500
C32         C  0.01649167  0.28758531  0.06113315    -0.23500
C33         C  0.43895783  0.28023110  0.96532882    -0.18800
C34         C  0.43988416  0.28010359  0.03676670    -0.18800
C35         C  0.05840431  0.27936712  0.03521546    -0.18800
C36         C  0.05736257  0.28577711  0.96402585    -0.18800
H37         H  0.37704070  0.26285388  0.98238060     0.14100
H38         H  0.37741255  0.26321995  0.02099243     0.14100
H39         H  0.11893836  0.26480160  0.97908386     0.14100
H40         H  0.11938811  0.26109575  0.01762127     0.14100
H41         H  0.46484661  0.29671255  0.92743989     0.12400
H42         H  0.02918944  0.30060187  0.92685533     0.12400
H43         H  0.46788814  0.29048193  0.07453518     0.12400
H44         H  0.03220198  0.28984799  0.07372239     0.12400
H45         H  0.47145427  0.29259694  0.00075644     0.25600
H46         H  0.02643207  0.29635961  0.00038228     0.25600
C47         C  0.24267050  0.04132261  0.76386486     0.86000
C48         C  0.21321210  0.03918263  0.75019559    -0.54300
C49         C  0.21211015  0.51196026  0.73883752     0.08900
C50         C  0.24234523  0.48984150  0.74122051     0.19800
C51         C  0.24278749  0.00833928  0.77492016    -0.55000
C52         C  0.24251878  0.48179995  0.76312716     0.09000
C53         C  0.27289287  0.03849024  0.75042939    -0.54500
C54         C  0.27252038  0.51220329  0.73829276     0.09600
H55         H  0.19400217  0.05738728  0.75010458     0.14100
H56         H  0.24233931  0.46789855  0.73171680    -0.00200
H57         H  0.24506822  0.50553605  0.79064593     0.14400
H58         H  0.29323759  0.05554065  0.75088301     0.14200
C59         C  0.50271550  0.20263492  0.73873875     0.86000
C60         C  0.47525758  0.20542007  0.75438095    -0.54300
C61         C  0.47669252  0.23297184  0.76558134     0.08900
C62         C  0.00510522  0.25592298  0.75996585     0.19800
C63         C  0.49879283  0.23457180  0.72702141    -0.55000
C64         C  0.50058362  0.26226543  0.73802966     0.09000
C65         C  0.03433973  0.20676836  0.75052686    -0.54500
C66         C  0.03618071  0.23486818  0.76124829     0.09600
H67         H  0.45453653  0.18909843  0.75571243     0.14100
H68         H  0.00599161  0.27865284  0.76875513    -0.00200
H69         H  0.99432885  0.23529585  0.71140456     0.14400
H70         H  0.05349662  0.18853616  0.75062216     0.14200
N71         N  0.24782263  0.45934760  0.00002981    -0.37100
N72         N  0.25004983  0.01046888  0.97037268    -0.57700
N73         N  0.24592635  0.06000171  0.00076978    -0.37100
N74         N  0.24722266  0.00922924  0.03047582    -0.57700
C75         C  0.25521795  0.44145581  0.98396396     0.26500
C76         C  0.25408038  0.44073661  0.01591985     0.26500
C77         C  0.25271648  0.07889258  0.98499669     0.26500
C78         C  0.25124208  0.07831917  0.01688155     0.26500
C79         C  0.24549521  0.48420987  0.95869637     0.35100
C80         C  0.24482894  0.03702380  0.95908130     0.35100
C81         C  0.24325234  0.48244157  0.04180146     0.35100
C82         C  0.24214133  0.03529562  0.04221224     0.35100
C83         C  0.26590882  0.41089837  0.98970887    -0.22400
C84         C  0.26507985  0.41040553  0.00987992    -0.22400
C85         C  0.26192418  0.10975429  0.99114395    -0.22400
C86         C  0.26094254  0.10941242  0.01126634    -0.22400
C87         C  0.23769351  0.49420866  0.93991438    -0.23500
C88         C  0.23736038  0.02764238  0.94017417    -0.23500
C89         C  0.23577904  0.49159604  0.06085963    -0.23500
C90         C  0.23518098  0.02505435  0.06113254    -0.23500
C91         C  0.25088811  0.45144214  0.96429747    -0.18800
C92         C  0.24887356  0.44994266  0.03567972    -0.18800
C93         C  0.24616163  0.06822106  0.03648496    -0.18800
C94         C  0.24880638  0.06966194  0.96522759    -0.18800
H95         H  0.27321825  0.39091604  0.98033627     0.14100
H96         H  0.27175676  0.39000608  0.01905235     0.14100
H97         H  0.26837944  0.13049437  0.98207964     0.14100
H98         H  0.26659953  0.12982777  0.02067318     0.14100
H99         H  0.23315077  0.47902425  0.92728112     0.12400
H100        H  0.23239582  0.04325410  0.92778148     0.12400
H101        H  0.23183510  0.47585374  0.07339018     0.12400
H102        H  0.23071829  0.04008865  0.07387581     0.12400
H103        H  0.23593345  0.48163539  0.00011234     0.25600
H104        H  0.23485713  0.03721520  0.00051164     0.25600
N105        N  0.23748733  0.33722591  0.87352840    -0.06600
N106        N  0.22706332  0.35563771  0.88814325    -0.58800
N107        N  0.26871090  0.33043627  0.82809559    -0.06300
N108        N  0.27987466  0.34867496  0.81357450    -0.60900
N109        N  0.23655948  0.33083385  0.82854870    -0.05900
N110        N  0.22540809  0.34923550  0.81428927    -0.58700
N111        N  0.26960207  0.33688854  0.87293167    -0.05600
N112        N  0.28164155  0.35510634  0.88707244    -0.61200
C113        C  0.25489302  0.36687321  0.89641670     0.95500
C114        C  0.25264042  0.36034624  0.80496647     0.95300
N115        N  0.32293652  0.24417122  0.83225102    -0.06800
N116        N  0.34521810  0.23085587  0.82073913    -0.59300
N117        N  0.32226269  0.28254792  0.87533576    -0.04900
N118        N  0.33848192  0.29613020  0.88979062    -0.60600
N119        N  0.32196068  0.25065318  0.87717677    -0.06900
N120        N  0.33815095  0.24199060  0.89301518    -0.59600
N121        N  0.32387891  0.27611478  0.83062355    -0.04600
N122        N  0.34694216  0.28498776  0.81796687    -0.60700
Mn123      Mn  0.29673246  0.30718486  0.85152550     1.18400
C124        C  0.35991103  0.25645340  0.81170085     0.97600
C125        C  0.34825224  0.27069722  0.90082958     0.98300
N126        N  0.17974133  0.27800432  0.83237524    -0.06900
N127        N  0.15849211  0.28730492  0.81901045    -0.63200
N128        N  0.18192234  0.25251161  0.87870713    -0.05700
N129        N  0.16346942  0.24356973  0.89370284    -0.63900
N130        N  0.18218848  0.28442386  0.87700927    -0.06400
N131        N  0.16396894  0.29780499  0.89086157    -0.63400
N132        N  0.17969611  0.24603457  0.83403027    -0.05300
N133        N  0.15874786  0.23294747  0.82171216    -0.64100
Mn134      Mn  0.20837275  0.30842811  0.85273452     1.10700
C135        C  0.14595430  0.25886905  0.81233197     0.98800
C136        C  0.15234107  0.27198355  0.90118544     0.98900
N137        N  0.26745347  0.19668776  0.87985341    -0.06400
N138        N  0.27917764  0.17912798  0.89433218    -0.61800
N139        N  0.23360644  0.19115694  0.83575553    -0.05700
N140        N  0.22099131  0.17025445  0.82322666    -0.58500
N141        N  0.26579626  0.19051599  0.83492182    -0.07000
N142        N  0.27562415  0.16900267  0.82170870    -0.61300
N143        N  0.23535903  0.19703947  0.88059169    -0.06000
N144        N  0.22469346  0.17953446  0.89562827    -0.58500
Mn145      Mn  0.29518666  0.21979582  0.85593432     1.20200
Mn146      Mn  0.20705584  0.22108287  0.85732301     1.10100
Cl147      Cl  0.25183030  0.26406274  0.85418405    -0.86500
C148        C  0.25237407  0.16848346  0.90417172     0.95900
C149        C  0.24736962  0.15687870  0.81438080     0.95600
N150        N  0.22834655  0.33138848  0.17166796    -0.06600
N151        N  0.21696044  0.35194236  0.18490258    -0.58800
N152        N  0.26138638  0.33563425  0.12690216    -0.06300
N153        N  0.27301682  0.35270366  0.11196323    -0.60900
N154        N  0.22925161  0.33513795  0.12663618    -0.05900
N155        N  0.21845859  0.35189361  0.11150889    -0.58700
N156        N  0.26054471  0.33120880  0.17188314    -0.05600
N157        N  0.27147514  0.35159859  0.18526186    -0.61200
C158        C  0.24407326  0.36441645  0.19335248     0.95500
C159        C  0.24599354  0.36262979  0.10237221     0.95300
N160        N  0.31558322  0.25112295  0.12267290    -0.06800
N161        N  0.33366218  0.24264525  0.10739174    -0.59300
N162        N  0.31681965  0.27670367  0.16948362    -0.04900
N163        N  0.33772409  0.28562006  0.18318885    -0.60600
N164        N  0.31686537  0.24478234  0.16756127    -0.06900
N165        N  0.33742337  0.23139798  0.17998886    -0.59600
N166        N  0.31559054  0.28296571  0.12463997    -0.04600
N167        N  0.33339367  0.29675609  0.11073286    -0.60700
Mn168      Mn  0.28917949  0.30732083  0.14850282     1.18400
C169        C  0.34448869  0.27146612  0.09995963     0.97600
C170        C  0.34994354  0.25702069  0.18984356     0.98300
N171        N  0.17497044  0.28075290  0.12465107    -0.06900
N172        N  0.15808735  0.29303638  0.11002571    -0.63200
N173        N  0.17342854  0.24440420  0.16847166    -0.05700
N174        N  0.15107884  0.23149439  0.18020802    -0.63900
N175        N  0.17268932  0.27641520  0.16956810    -0.06400
N176        N  0.14969732  0.28571187  0.18210558    -0.63400
N177        N  0.17506890  0.24876550  0.12369717    -0.05300
N178        N  0.15831655  0.23869485  0.10843005    -0.64100
Mn179      Mn  0.20065538  0.30669419  0.14828105     1.10700
C180        C  0.14770052  0.26651060  0.09999970     0.98800
C181        C  0.13651424  0.25740697  0.18883446     0.98900
N182        N  0.26202499  0.19129982  0.16575948    -0.06400
N183        N  0.27421378  0.17136456  0.17887278    -0.61800
N184        N  0.22891806  0.19518811  0.12174859    -0.05700
N185        N  0.21716641  0.17697781  0.10754464    -0.58500
N186        N  0.26102358  0.19571851  0.12101710    -0.07000
N187        N  0.27166744  0.17765833  0.10629683    -0.61300
N188        N  0.22987706  0.19081198  0.16652549    -0.06000
N189        N  0.21964588  0.17020015  0.18017034    -0.58500
Mn190      Mn  0.28948400  0.22009713  0.14411867     1.20200
Mn191      Mn  0.20122824  0.21914604  0.14526229     1.10100
Cl192      Cl  0.24511744  0.26331664  0.14671607    -0.86500
C193        C  0.24768598  0.15852581  0.18793811     0.95900
C194        C  0.24399485  0.16624675  0.09785381     0.95600
N195        N  0.48116635  0.05558697  0.66565394    -0.06600
N196        N  0.47116210  0.07556365  0.67962360    -0.58800
N197        N  0.01087134  0.04828762  0.61959099    -0.06300
N198        N  0.02155359  0.06508758  0.60429583    -0.60900
N199        N  0.47878136  0.04903966  0.62049339    -0.05900
N200        N  0.46707323  0.06624813  0.60578158    -0.58700
N201        N  0.01330907  0.05559020  0.66452829    -0.05600
N202        N  0.02575381  0.07566780  0.67761145    -0.61200
C203        C  0.49923772  0.08771289  0.68710964     0.95500
C204        C  0.49398048  0.07605650  0.59563216     0.95300
N205        N  0.06404990  0.46104026  0.62441717    -0.06800
N206        N  0.08113820  0.44656577  0.61048648    -0.59300
N207        N  0.06735699  0.00125518  0.66645584    -0.04900
N208        N  0.08868271  0.01496446  0.67830082    -0.60600
N209        N  0.06672059  0.46958305  0.66900048    -0.06900
N210        N  0.08802499  0.46105882  0.68251717    -0.59600
N211        N  0.06435958  0.99272393  0.62183326    -0.04600
N212        N  0.08171996  0.00046371  0.60610421    -0.60700
Mn213      Mn  0.03962009  0.02515782  0.64297837     1.18400
C214        C  0.09194230  0.47138502  0.59909631     0.97600
C215        C  0.10102083  0.48980229  0.68839412     0.98300
N216        N  0.42422943  0.99558071  0.62458441    -0.06900
N217        N  0.40658704  0.00489812  0.60954648    -0.63200
N218        N  0.42338157  0.47046264  0.67105092    -0.05700
N219        N  0.40163877  0.46194411  0.68460215    -0.63900
N220        N  0.42463922  0.00235196  0.66928101    -0.06400
N221        N  0.40371245  0.01597221  0.68155912    -0.63400
N222        N  0.42350289  0.46358036  0.62624729    -0.05300
N223        N  0.40543779  0.45054187  0.61235307    -0.64100
Mn224      Mn  0.45160472  0.02636769  0.64508745     1.10700
C225        C  0.39476089  0.47657150  0.60203309     0.98800
C226        C  0.38952775  0.49066423  0.69120302     0.98900
N227        N  0.00996233  0.41568712  0.67347550    -0.06400
N228        N  0.02096524  0.39714598  0.68775364    -0.61800
N229        N  0.47725840  0.40940194  0.62844346    -0.05700
N230        N  0.46589844  0.39246291  0.61351655    -0.58500
N231        N  0.00938895  0.40887256  0.62838832    -0.07000
N232        N  0.02043984  0.39162148  0.61345121    -0.61300
N233        N  0.47778886  0.41558191  0.67360284    -0.06000
N234        N  0.46651616  0.39695045  0.68795546    -0.58500
Mn235      Mn  0.03815199  0.43803568  0.64910766     1.20200
Mn236      Mn  0.44980700  0.43894067  0.64997673     1.10100
Cl237      Cl  0.49470023  0.48217377  0.64695781    -0.86500
C238        C  0.49364408  0.38555932  0.69685131     0.95900
C239        C  0.49309576  0.38145834  0.60421416     0.95600
N240        N  0.07470419  0.47413865  0.33159489    -0.06600
N241        N  0.09756436  0.46530832  0.31882103    -0.58800
N242        N  0.07179693  0.00023073  0.37802091    -0.06300
N243        N  0.08854053  0.00923890  0.39355449    -0.60900
N244        N  0.07206489  0.46828285  0.37634420    -0.05900
N245        N  0.08877323  0.45500690  0.39065873    -0.58700
N246        N  0.07390223  0.00610647  0.33314099    -0.05600
N247        N  0.09607195  0.01946632  0.32146592    -0.61200
C248        C  0.11074702  0.49391292  0.31255775     0.95500
C249        C  0.09897920  0.48072900  0.40135475     0.95300
N250        N  0.48509777  0.05398688  0.37980261    -0.06800
N251        N  0.47359797  0.07185986  0.39434236    -0.59300
N252        N  0.01770062  0.05959643  0.33510238    -0.04900
N253        N  0.02864823  0.08155387  0.32245734    -0.60600
N254        N  0.48549011  0.05873641  0.33503376    -0.06900
N255        N  0.47395724  0.07990204  0.32229526    -0.59600
N256        N  0.01723707  0.05431922  0.37979574    -0.04600
N257        N  0.02816795  0.07240540  0.39430005    -0.60700
Mn258      Mn  0.04579105  0.03069048  0.35649226     1.18400
C259        C  0.50068783  0.08308463  0.40341278     0.97600
C260        C  0.50110306  0.09360846  0.31436564     0.98300
N261        N  0.01884244  0.41403629  0.37434874    -0.06900
N262        N  0.03017553  0.39693201  0.38921284    -0.63200
N263        N  0.48744086  0.41860298  0.32926851    -0.05700
N264        N  0.47707040  0.40056809  0.31456013    -0.63900
N265        N  0.01959136  0.41957402  0.32920797    -0.06400
N266        N  0.03155165  0.40228606  0.31457190    -0.63400
N267        N  0.48670666  0.41373788  0.37457885    -0.05300
N268        N  0.47562252  0.39647629  0.38958549    -0.64100
Mn269      Mn  0.04688755  0.44325276  0.35268249     1.10700
C270        C  0.50295324  0.38615024  0.39870913     0.98800
C271        C  0.50486733  0.39045534  0.30543148     0.98900
N272        N  0.43116312  0.00361537  0.33315731    -0.06400
N273        N  0.41106952  0.01617262  0.32018592    -0.61800
N274        N  0.43131760  0.46682898  0.37692898    -0.05700
N275        N  0.41300145  0.45422304  0.39112143    -0.58500
N276        N  0.43127704  0.99885121  0.37807666    -0.07000
N277        N  0.41306676  0.00854785  0.39299373    -0.61300
N278        N  0.43114889  0.47162598  0.33195096    -0.06000
N279        N  0.41079322  0.46181291  0.31823527    -0.58500
Mn280      Mn  0.45762285  0.02936213  0.35649208     1.20200
Mn281      Mn  0.45843514  0.44178691  0.35308728     1.10100
Cl282      Cl  0.50218833  0.48627277  0.35454105    -0.86500
C283        C  0.39895550  0.48993107  0.31080403     0.95900
C284        C  0.40160590  0.48056483  0.40103369     0.95600
N285        N  0.50024530  0.18800048  0.50060666    -0.37100
N286        N  0.49801601  0.23699305  0.53081280    -0.57700
N287        N  0.49965360  0.28837372  0.50090223    -0.37100
N288        N  0.50520004  0.23904788  0.47072507    -0.57700
C289        C  0.50499757  0.16903678  0.51655755     0.26500
C290        C  0.50828184  0.17007476  0.48471006     0.26500
C291        C  0.50472072  0.30619568  0.51725659     0.26500
C292        C  0.50799483  0.30724942  0.48532988     0.26500
C293        C  0.49249685  0.21037120  0.54210487     0.35100
C294        C  0.49216608  0.26318923  0.54225017     0.35100
C295        C  0.50116667  0.21278479  0.45905869     0.35100
C296        C  0.50141758  0.26557498  0.45920011     0.35100
C297        C  0.51599246  0.13862759  0.51069676    -0.22400
C298        C  0.51798809  0.13925456  0.49058563    -0.22400
C299        C  0.51605260  0.33692751  0.51200247    -0.22400
C300        C  0.51810252  0.33758770  0.49184767    -0.22400
C301        C  0.48338416  0.21967926  0.56084031    -0.23500
C302        C  0.48315515  0.25311457  0.56094270    -0.23500
C303        C  0.49530001  0.22266626  0.44000482    -0.23500
C304        C  0.49547615  0.25609214  0.44009101    -0.23500
C305        C  0.49793446  0.17784361  0.53615226    -0.18800
C306        C  0.50479515  0.18000400  0.46502500    -0.18800
C307        C  0.50525212  0.29823846  0.46540341    -0.18800
C308        C  0.49783962  0.29599663  0.53670380    -0.18800
H309        H  0.52163644  0.11798956  0.51993270     0.14100
H310        H  0.52542331  0.11917031  0.48132954     0.14100
H311        H  0.52209522  0.35686968  0.52168547     0.14100
H312        H  0.52606738  0.35807850  0.48299724     0.14100
H313        H  0.47808301  0.20402833  0.57324117     0.12400
H314        H  0.47768789  0.26826998  0.57349589     0.12400
H315        H  0.49166687  0.20738885  0.42730288     0.12400
H316        H  0.49191700  0.27161951  0.42747794     0.12400
H317        H  0.48846032  0.21031392  0.50035141     0.25600
H318        H  0.48783529  0.26598684  0.50035435     0.25600
N319        N  0.19752171  0.45984544  0.50103754    -0.37100
N320        N  0.24767108  0.46155239  0.53103237    -0.57700
N321        N  0.29865704  0.46349106  0.50090860    -0.37100
N322        N  0.24854327  0.46510246  0.47094274    -0.57700
C323        C  0.17850451  0.46450876  0.51710047     0.26500
C324        C  0.17877396  0.46536924  0.48518527     0.26500
C325        C  0.31698752  0.46843650  0.51701587     0.24500
C326        C  0.31750066  0.47083136  0.48511527     0.26500
C327        C  0.22114149  0.45688462  0.54263525     0.35100
C328        C  0.27403726  0.45752546  0.54251940     0.35100
C329        C  0.22230022  0.46200723  0.45919464     0.35100
C330        C  0.27527616  0.46425075  0.45914411     0.35100
C331        C  0.14698882  0.47206141  0.51137214    -0.22400
C332        C  0.14710259  0.47241054  0.49125590    -0.22400
C333        C  0.34814790  0.47832916  0.51137840    -0.22400
C334        C  0.34847602  0.47981307  0.49125225    -0.22400
C335        C  0.23067428  0.44998495  0.56160005    -0.23500
C336        C  0.26417803  0.45031123  0.56152228    -0.23500
C337        C  0.23246739  0.45963838  0.43982305    -0.23500
C338        C  0.26593568  0.46087928  0.43980764    -0.23500
C339        C  0.18842706  0.46125799  0.53679557    -0.18800
C340        C  0.18920443  0.46379519  0.46537755    -0.18800
C341        C  0.30798461  0.46845465  0.46528693    -0.18800
C342        C  0.30679297  0.46313036  0.53662632    -0.18800
H343        H  0.12601561  0.47679907  0.52070394     0.14100
H344        H  0.12619700  0.47749822  0.48217198     0.14100
H345        H  0.36861637  0.48374365  0.52077512     0.14100
H346        H  0.36922919  0.48663495  0.48217472     0.14100
H347        H  0.21510398  0.44566949  0.57424317     0.12400
H348        H  0.27951377  0.44634331  0.57412154     0.12400
H349        H  0.21737522  0.45769140  0.42695172     0.12400
H350        H  0.28156907  0.45998309  0.42695356     0.12400
H351        H  0.22110835  0.45077695  0.50084208     0.25600
H352        H  0.27576921  0.45264132  0.50065755     0.25600
C353        C  0.49474128  0.21071094  0.26516716     0.86000
C354        C  0.02224219  0.21171642  0.24979480    -0.54300
C355        C  0.02080154  0.23730507  0.23707161     0.08900
C356        C  0.49199560  0.26052545  0.24111086     0.19800
C357        C  0.49724952  0.24448085  0.27522673    -0.55000
C358        C  0.49591030  0.27032680  0.26264189     0.09000
C359        C  0.46268091  0.21298228  0.25363251    -0.54500
C360        C  0.46103471  0.23881557  0.24103286     0.09600
H361        H  0.04218120  0.19431315  0.24966265     0.14100
H362        H  0.49103253  0.28167872  0.23097316    -0.00200
H363        H  0.49957458  0.24877245  0.29075116     0.14400
H364        H  0.44299076  0.19531074  0.25520203     0.14200
C365        C  0.47589947  0.35446132  0.28224864    -0.20800
C366        C  0.50542454  0.36281825  0.29130815    -0.07400
C367        C  0.03331520  0.34295816  0.28785995     0.13500
C368        C  0.02971740  0.31384534  0.27725093    -0.20900
C369        C  0.49940606  0.30432333  0.26969731    -0.07400
C370        C  0.47250730  0.32562959  0.27149846     0.13500
C371        C  0.43938616  0.31830222  0.26319069    -0.24200
H372        H  0.45470015  0.36995463  0.28418899     0.14800
H373        H  0.05040026  0.29760338  0.27553108     0.14800
C374        C  0.06664966  0.35115243  0.29576511    -0.24200
H375        H  0.43213772  0.33827667  0.25316885     0.05000
H376        H  0.42108853  0.31635245  0.27524474     0.08200
H377        H  0.43887166  0.29549069  0.25480814     0.08200
H378        H  0.06602802  0.35092559  0.31200407     0.08200
H379        H  0.07459608  0.37544596  0.29030030     0.08200
H380        H  0.08538558  0.33322091  0.29102056     0.05000
C381        C  0.49348279  0.12044608  0.28238985    -0.20800
C382        C  0.50029407  0.12334786  0.30226578    -0.07400
C383        C  0.00561118  0.15439539  0.31034105     0.13500
C384        C  0.00384656  0.18205590  0.29826183    -0.20900
C385        C  0.49673728  0.17979374  0.27804468    -0.07400
C386        C  0.49230198  0.14783820  0.27006267     0.13500
C387        C  0.48652531  0.14066517  0.24867129    -0.24200
H388        H  0.48954915  0.09635039  0.27630843     0.14800
H389        H  0.00867404  0.20514917  0.30504685     0.14800
C390        C  0.01262113  0.15840318  0.33184179    -0.24200
H391        H  0.50564353  0.12369305  0.24324744     0.05000
H392        H  0.48730795  0.16206768  0.23893712     0.08200
H393        H  0.46226112  0.12880221  0.24701592     0.08200
H394        H  0.03548249  0.14541706  0.33558796     0.08200
H395        H  0.99206724  0.14817649  0.34066237     0.08200
H396        H  0.01569336  0.18440961  0.33594373     0.05000
C397        C  0.47460535  0.13937246  0.44532949    -0.20800
C398        C  0.50439862  0.15439714  0.44970589    -0.07400
C399        C  0.03291167  0.14559865  0.43932779     0.13500
C400        C  0.03085376  0.12213452  0.42447888    -0.20900
C401        C  0.50085613  0.10726779  0.41965950    -0.07400
C402        C  0.47233006  0.11593789  0.43045091     0.13500
C403        C  0.43944422  0.10058610  0.42675113    -0.24200
H404        H  0.45293169  0.14634593  0.45354033     0.14800
H405        H  0.05287887  0.11564901  0.41648645     0.14800
C406        C  0.06541522  0.16099379  0.44396848    -0.24200
H407        H  0.42049188  0.10941283  0.43719622     0.05000
H408        H  0.44115248  0.07375319  0.42851051     0.08200
H409        H  0.43106292  0.10677184  0.41180566     0.08200
H410        H  0.07170754  0.15603918  0.45945729     0.08200
H411        H  0.06415671  0.18773798  0.44164432     0.08200
H412        H  0.08535162  0.15124513  0.43453826     0.05000
C413        C  0.03258681  0.34964305  0.42165164    -0.20800
C414        C  0.50346588  0.36591937  0.41692230    -0.07400
C415        C  0.47610734  0.36261025  0.42976907     0.13500
C416        C  0.47805941  0.34158918  0.44601739    -0.20900
C417        C  0.50660110  0.32410129  0.45000081    -0.07400
C418        C  0.03457436  0.32903867  0.43803188     0.13500
C419        C  0.06678172  0.31277927  0.44208180    -0.24200
H420        H  0.05398604  0.35252042  0.41232056     0.14800
H421        H  0.45683962  0.33800287  0.45541141     0.14800
C422        C  0.44486081  0.38126588  0.42678574    -0.24200
H423        H  0.08599726  0.33168908  0.44395355     0.05000
H424        H  0.07362078  0.29692455  0.42955657     0.08200
H425        H  0.06619111  0.29766113  0.45553823     0.08200
H426        H  0.43290687  0.37330301  0.41308535     0.08200
H427        H  0.45019470  0.40780741  0.42615207     0.08200
H428        H  0.42709560  0.37714541  0.43894376     0.05000
C429        C  0.13063710  0.44573690  0.42393418    -0.20800
C430        C  0.12063288  0.47736549  0.41862795    -0.07400
C431        C  0.13200190  0.50430279  0.42970505     0.13500
C432        C  0.15365178  0.49886059  0.44517017    -0.20900
C433        C  0.16414702  0.46743257  0.44993655    -0.07400
C434        C  0.15225494  0.44047981  0.43940619     0.13500
C435        C  0.16267492  0.40627323  0.44435917    -0.24200
H436        H  0.12192745  0.42486751  0.41577509     0.14800
H437        H  0.16299735  0.51931923  0.45347086     0.14800
C438        C  0.12199527  0.53888165  0.42542820    -0.24200
H439        H  0.15079352  0.38795681  0.43477967     0.05000
H440        H  0.15587213  0.40062809  0.45976365     0.08200
H441        H  0.18982218  0.90388490  0.44239232     0.08200
H442        H  0.09501204  0.54117894  0.42662105     0.08200
H443        H  0.13034268  0.04612514  0.41067266     0.08200
H444        H  0.13288821  0.55641103  0.43591126     0.05000
C445        C  0.37401623  0.44845406  0.42748284    -0.20800
C446        C  0.37852713  0.47874112  0.41811975    -0.07400
C447        C  0.36047887  0.50600260  0.42511743     0.13500
C448        C  0.33834749  0.50191398  0.44080499    -0.20900
C449        C  0.33371926  0.47156441  0.44980794    -0.07400
C450        C  0.35203594  0.44455737  0.44323680     0.13500
C451        C  0.34867374  0.41122191  0.45234555    -0.24200
H452        H  0.38763916  0.42743761  0.42244227     0.14800
H453        H  0.32444404  0.02244472  0.44619058     0.14800
C454        C  0.36376391  0.03941758  0.41624606    -0.24200
H455        H  0.37268768  0.40348543  0.45816154     0.05000
H456        H  0.34060138  0.89347825  0.44096605     0.08200
H457        H  0.33065660  0.41039061  0.46455309     0.08200
H458        H  0.35716108  0.03835408  0.40053820     0.08200
H459        H  0.38873064  0.54871185  0.41765015     0.08200
H460        H  0.34725387  0.05729993  0.42343056     0.05000
C461        C  0.13447239  0.49530774  0.57732641    -0.20800
C462        C  0.11583464  0.46782218  0.58272445    -0.07400
C463        C  0.12072706  0.43807504  0.57248331     0.13500
C464        C  0.14430106  0.43676236  0.55741507    -0.20900
C465        C  0.16312895  0.46414144  0.55243567    -0.07400
C466        C  0.15814543  0.49376860  0.56241751     0.13500
C467        C  0.17782853  0.52376934  0.55731591    -0.24200
H468        H  0.13093532  0.51811487  0.58501862     0.14800
H469        H  0.14835045  0.41419739  0.54953915     0.14800
C470        C  0.10108173  0.40773301  0.57695339    -0.24200
H471        H  0.17090371  0.04486460  0.56660735     0.05000
H472        H  0.17412656  0.53018556  0.54170577     0.08200
H473        H  0.20447954  0.01891782  0.56000176     0.08200
H474        H  0.07457102  0.41291606  0.57561694     0.08200
H475        H  0.10566936  0.89889244  0.59145291     0.08200
H476        H  0.10706442  0.38757926  0.56669980     0.05000
C477        C  0.37039195  0.44401853  0.57516308    -0.20800
C478        C  0.37296580  0.47419377  0.58479422    -0.07400
C479        C  0.35436564  0.00103399  0.57800549     0.13500
C480        C  0.33377854  0.99664982  0.56192870    -0.20900
C481        C  0.33135122  0.46640585  0.55234837    -0.07400
C482        C  0.35010804  0.43985548  0.55891916     0.13500
C483        C  0.34897685  0.40684451  0.54930125    -0.24200
H484        H  0.38419239  0.42336755  0.58036510     0.14800
H485        H  0.31888079  0.01670782  0.55685775     0.14800
C486        C  0.35472007  0.03391020  0.58782578    -0.24200
H487        H  0.34065163  0.38830162  0.56011567     0.05000
H488        H  0.37380493  0.90040677  0.54404084     0.08200
H489        H  0.33225102  0.40596940  0.53664142     0.08200
H490        H  0.37940427  0.04502664  0.58652291     0.08200
H491        H  0.34748488  0.53120797  0.60336885     0.08200
H492        H  0.33725491  0.05108036  0.58099454     0.05000
C493        C  0.02280780  0.11990149  0.57700393    -0.20800
C494        C  0.49404566  0.10150072  0.57995820    -0.07400
C495        C  0.46650123  0.10822509  0.56810806     0.13500
C496        C  0.46855364  0.13308109  0.55389529    -0.20900
C497        C  0.49714361  0.15161212  0.55132345    -0.07400
C498        C  0.02458344  0.14493826  0.56299876     0.13500
C499        C  0.05577105  0.16423896  0.56062751    -0.24200
H500        H  0.04400650  0.11509366  0.58592928     0.14800
H501        H  0.44766563  0.13830500  0.54477671     0.14800
C502        C  0.43505433  0.08915770  0.56999717    -0.24200
H503        H  0.07500690  0.15570688  0.57077066     0.05000
H504        H  0.05108287  0.19035557  0.56374056     0.08200
H505        H  0.06521222  0.16173090  0.54542101     0.08200
H506        H  0.42373310  0.09345165  0.58457743     0.08200
H507        H  0.43992761  0.06276218  0.56800866     0.08200
H508        H  0.41696832  0.09659497  0.55883038     0.05000
C509        C  0.02325193  0.34613718  0.58072393    -0.20800
C510        C  0.49365029  0.36132593  0.58602026    -0.07400
C511        C  0.46602350  0.35688326  0.57382522     0.13500
C512        C  0.46858714  0.33673229  0.55724795    -0.20900
C513        C  0.49780435  0.32073711  0.55260111    -0.07400
C514        C  0.02555483  0.32575430  0.56430510     0.13500
C515        C  0.05741751  0.30905095  0.55962895    -0.24200
H516        H  0.04465006  0.34954283  0.58973260     0.14800
H517        H  0.44740986  0.33258680  0.54814373     0.14800
C518        C  0.43382307  0.37327213  0.57791116    -0.24200
H519        H  0.07680889  0.31576693  0.57017083     0.05000
H520        H  0.06589272  0.31616953  0.54473912     0.08200
H521        H  0.05406760  0.28220627  0.56021426     0.08200
H522        H  0.43753038  0.40006242  0.57841541     0.08200
H523        H  0.42338208  0.36442596  0.59200048     0.08200
H524        H  0.41559436  0.36802396  0.56637448     0.05000
C525        C  0.08664410  0.22587249  0.19810780    -0.20800
C526        C  0.10518851  0.25462372  0.20015087    -0.07400
C527        C  0.09342697  0.27925713  0.21292681     0.13500
C528        C  0.06496979  0.27344585  0.22419844    -0.20900
C529        C  0.04764132  0.24399231  0.22280398    -0.07400
C530        C  0.05783630  0.22049791  0.20898016     0.13500
C531        C  0.03787578  0.19020977  0.20515207    -0.24200
H532        H  0.09464897  0.20734657  0.18786581     0.14800
H533        H  0.05676622  0.29159820  0.23463771     0.14800
C534        C  0.11100951  0.31131770  0.21524483    -0.24200
H535        H  0.04800472  0.17593494  0.19271509     0.05000
H536        H  0.01243110  0.19712197  0.20147543     0.08200
H537        H  0.03758908  0.17404014  0.21813152     0.08200
H538        H  0.11101556  0.32481134  0.20115769     0.08200
H539        H  0.13653198  0.30704453  0.21996708     0.08200
H540        H  0.09896069  0.32704610  0.22637180     0.05000
C541        C  0.37314411  0.24875967  0.22291300    -0.20800
C542        C  0.37851348  0.25421907  0.20291142    -0.07400
C543        C  0.41090234  0.25545330  0.19559881     0.13500
C544        C  0.43720924  0.25104767  0.20847057    -0.20900
C545        C  0.43197085  0.24524050  0.22851929    -0.07400
C546        C  0.39933458  0.24491354  0.23590516     0.13500
C547        C  0.39091955  0.24201817  0.25738943    -0.24200
H548        H  0.34825294  0.24794820  0.22851117     0.14800
H549        H  0.46202212  0.25134784  0.20275223     0.14800
C550        C  0.41766529  0.26082825  0.17413843    -0.24200
H551        H  0.37473181  0.26249153  0.26173154     0.05000
H552        H  0.41245694  0.24336263  0.26702512     0.08200
H553        H  0.37780992  0.21869058  0.26013267     0.08200
H554        H  0.40739014  0.28459701  0.16951985     0.08200
H555        H  0.40621160  0.24102010  0.16549242     0.08200
H556        H  0.44430140  0.26102801  0.17081197     0.05000
C557        C  0.21628958  0.10747735  0.05759820    -0.20800
C558        C  0.24614680  0.09361278  0.05202133    -0.07400
C559        C  0.27518703  0.10418364  0.06107739     0.13500
C560        C  0.27350202  0.12770987  0.07591606    -0.20900
C561        C  0.24359810  0.14155612  0.08181847    -0.07400
C562        C  0.21456283  0.13149206  0.07220927     0.13500
C563        C  0.18178102  0.14644872  0.07660644    -0.24200
H564        H  0.19420624  0.09951534  0.05033120     0.14800
H565        H  0.29598153  0.13529316  0.08287254     0.14800
C566        C  0.30839573  0.09145850  0.05529264    -0.24200
H567        H  0.16235666  0.13681795  0.06691378     0.05000
H568        H  0.18342955  0.17313825  0.07418267     0.08200
H569        H  0.17421026  0.14105076  0.09190919     0.08200
H570        H  0.30744615  0.07318625  0.04338459     0.08200
H571        H  0.32000960  0.07987759  0.06815375     0.08200
H572        H  0.32400787  0.11203998  0.05018890     0.05000
C573        C  0.22223536  0.40516984  0.05467776    -0.20800
C574        C  0.25005799  0.42434506  0.05114852    -0.07400
C575        C  0.27752340  0.42087447  0.06328170     0.13500
C576        C  0.27559971  0.40016896  0.07963865    -0.20900
C577        C  0.24692982  0.38245649  0.08406752    -0.07400
C578        C  0.22038779  0.38396585  0.07084149     0.13500
C579        C  0.19030329  0.36300588  0.07327623    -0.24200
H580        H  0.20155136  0.40745425  0.04497213     0.14800
H581        H  0.29646117  0.39838581  0.08923507     0.14800
C582        C  0.30878830  0.43912798  0.05894012    -0.24200
H583        H  0.17344718  0.36567822  0.06073564     0.05000
H584        H  0.17660582  0.37013053  0.08667474     0.08200
H585        H  0.19741251  0.33694866  0.07414394     0.08200
H586        H  0.30447219  0.46578337  0.05959460     0.08200
H587        H  0.31781760  0.43260581  0.04408117     0.08200
H588        H  0.32819521  0.43308079  0.06959358     0.05000
C589        C  0.22294450  0.13601172  0.92967077    -0.20800
C590        C  0.25278835  0.14397829  0.92036810    -0.07400
C591        C  0.28168654  0.12773357  0.92647486     0.13500
C592        C  0.27955239  0.10371399  0.94112723    -0.20900
C593        C  0.24964944  0.09567771  0.95001817    -0.07400
C594        C  0.22109152  0.11216221  0.94440403     0.13500
C595        C  0.18862788  0.10427414  0.95388342    -0.24200
H596        H  0.20078127  0.14835472  0.92534503     0.14800
H597        H  0.30135209  0.09095579  0.94570827     0.14800
C598        C  0.31492935  0.13496659  0.91773083    -0.24200
H599        H  0.16863279  0.11937759  0.94783436     0.05000
H600        H  0.18990566  0.10887832  0.96986702     0.08200
H601        H  0.18244599  0.07824983  0.95138859     0.08200
H602        H  0.32142576  0.16092808  0.92018593     0.08200
H603        H  0.31501155  0.12940684  0.90183774     0.08200
H604        H  0.33436796  0.11997638  0.92449470     0.05000
C605        C  0.22881397  0.38564902  0.92740569    -0.20800
C606        C  0.25568020  0.38719292  0.91442940    -0.07400
C607        C  0.28199359  0.40855559  0.91875168     0.13500
C608        C  0.28047041  0.42782637  0.93571364    -0.20900
C609        C  0.25327285  0.42673913  0.94834659    -0.07400
C610        C  0.22731414  0.40510315  0.94429385     0.13500
C611        C  0.19759073  0.40324128  0.95744289    -0.24200
H612        H  0.20868544  0.36927802  0.92425851     0.14800
H613        H  0.30008465  0.44484012  0.93882350     0.14800
C614        C  0.31095648  0.41267256  0.90515343    -0.24200
H615        H  0.17914575  0.38575522  0.95181702     0.05000
H616        H  0.18596416  0.42758476  0.95849911     0.08200
H617        H  0.20473245  0.39504307  0.97227158     0.08200
H618        H  0.30250040  0.41995269  0.89039031     0.08200
H619        H  0.32484779  0.38960332  0.90416929     0.08200
H620        H  0.32808966  0.43177370  0.91037387     0.05000
C621        C  0.48236016  0.14479264  0.73001977    -0.20800
C622        C  0.50319186  0.17159316  0.72573570    -0.07400
C623        C  0.02522116  0.16812098  0.70948362     0.13500
C624        C  0.02301618  0.14062156  0.69728214    -0.20900
C625        C  0.50066376  0.11547804  0.70099324    -0.07400
C626        C  0.48094561  0.11700470  0.71797911     0.13500
C627        C  0.45944127  0.08868733  0.72397335    -0.24200
H628        H  0.46754071  0.14446567  0.74310796     0.14800
H629        H  0.03906700  0.13867745  0.68462361     0.14800
C630        C  0.05250339  0.19199006  0.70502263    -0.24200
H631        H  0.44702988  0.09304702  0.73825228     0.05000
H632        H  0.47448815  0.06634917  0.72541253     0.08200
H633        H  0.44022959  0.08458243  0.71289021     0.08200
H634        H  0.06986645  0.19222160  0.71727705     0.08200
H635        H  0.04336804  0.21677287  0.70207495     0.08200
H636        H  0.06683632  0.18478734  0.69184684     0.05000
C637        C  0.02474099  0.34215755  0.71381809    -0.20800
C638        C  0.49414734  0.35617280  0.70982275    -0.07400
C639        C  0.46552037  0.34046983  0.71723525     0.13500
C640        C  0.46829307  0.30996158  0.72657260    -0.20900
C641        C  0.49881991  0.29539904  0.72938836    -0.07400
C642        C  0.02736415  0.31215208  0.72348126     0.13500
C643        C  0.06066374  0.29790354  0.72676361    -0.24200
H644        H  0.04691044  0.35418795  0.70880950     0.14800
H645        H  0.44645767  0.29707454  0.73131246     0.14800
C646        C  0.43202836  0.35539023  0.71558801    -0.24200
H647        H  0.08049753  0.31422458  0.72134494     0.05000
H648        H  0.06259252  0.27447149  0.71878910     0.08200
H649        H  0.06440167  0.29392228  0.74264344     0.08200
H650        H  0.42452552  0.35645034  0.70004964     0.08200
H651        H  0.43216438  0.38025506  0.72199243     0.08200
H652        H  0.41322609  0.34086113  0.72360332     0.05000
C653        C  0.05949267  0.25569763  0.79249577    -0.20800
C654        C  0.06507628  0.24366705  0.77348979    -0.07400
C655        C  0.09793878  0.23955080  0.76697171     0.13500
C656        C  0.12368810  0.24475876  0.78002193    -0.20900
C657        C  0.11792842  0.25614250  0.79898172    -0.07400
C658        C  0.08556594  0.26238196  0.80521339     0.13500
C659        C  0.07853914  0.27522849  0.82544448    -0.24200
H660        H  0.03459807  0.25913825  0.79762875     0.14800
H661        H  0.14865565  0.24049690  0.77520475     0.14800
C662        C  0.10726565  0.23124468  0.74622961    -0.24200
H663        H  0.05189787  0.27828065  0.82811429     0.05000
H664        H  0.09051334  0.29934502  0.82727446     0.08200
H665        H  0.08809413  0.25806686  0.83656992     0.08200
H666        H  0.08651405  0.23312283  0.73618193     0.08200
H667        H  0.11759136  0.20628207  0.74561543     0.08200
H668        H  0.12593608  0.24884530  0.74076950     0.05000
C669        C  0.41154302  0.22643949  0.80536075    -0.20800
C670        C  0.39172888  0.25343040  0.80107536    -0.07400
C671        C  0.40253301  0.27596647  0.78665126     0.13500
C672        C  0.43164225  0.26973500  0.77616324    -0.20900
C673        C  0.44999793  0.24151157  0.77955423    -0.07400
C674        C  0.44060262  0.22036995  0.79493722     0.13500
C675        C  0.46157105  0.19185711  0.80075131    -0.24200
H676        H  0.40416627  0.20973162  0.81689072     0.14800
H677        H  0.43936156  0.28629035  0.76468166     0.14800
C678        C  0.38290341  0.30573624  0.78154329    -0.24200
H679        H  0.45155226  0.17912874  0.81386544     0.05000
H680        H  0.48655948  0.20061337  0.80426641     0.08200
H681        H  0.46305595  0.17377411  0.78875668     0.08200
H682        H  0.38126621  0.32220604  0.79437637     0.08200
H683        H  0.35796209  0.29838358  0.77698289     0.08200
H684        H  0.39431344  0.31973756  0.76932057     0.05000
C685        C  0.31966166  0.47713162  0.72824891    -0.20800
C686        C  0.30064319  0.50501596  0.72498286    -0.07400
C687        C  0.31028883  0.02681237  0.70999944     0.13500
C688        C  0.33904729  0.02108242  0.69922036    -0.20900
C689        C  0.35870837  0.49401386  0.70287425    -0.07400
C690        C  0.34872957  0.47143920  0.71750373     0.13500
C691        C  0.36915770  0.44212009  0.72244795    -0.24200
H692        H  0.31230693  0.46027294  0.73967583     0.14800
H693        H  0.34610355  0.03821202  0.68784653     0.14800
C694        C  0.28993105  0.05620346  0.70514133    -0.24200
H695        H  0.35861761  0.42818459  0.73496408     0.05000
H696        H  0.39435507  0.94985553  0.72649998     0.08200
H697        H  0.37047934  0.42540937  0.70971810     0.08200
H698        H  0.29035980  0.07370338  0.71744036     0.08200
H699        H  0.26421684  0.54883499  0.70229831     0.08200
H700        H  0.29940255  0.06916678  0.69197166     0.05000
C701        C  0.18841149  0.49507211  0.70683595    -0.20800
C702        C  0.18321852  0.50365791  0.72653056    -0.07400
C703        C  0.15065815  0.00537381  0.73371074     0.13500
C704        C  0.12449355  0.00045708  0.72089456    -0.20900
C705        C  0.12964691  0.49289855  0.70128662    -0.07400
C706        C  0.16196564  0.48980990  0.69411824     0.13500
C707        C  0.16842798  0.48175749  0.67294251    -0.24200
H708        H  0.21323014  0.49351403  0.70122204     0.14800
H709        H  0.09959785  0.00253592  0.72635497     0.14800
C710        C  0.14185536  0.01144625  0.75488337    -0.24200
H711        H  0.19502338  0.48031954  0.66965020     0.05000
H712        H  0.15786460  0.00059713  0.66339857     0.08200
H713        H  0.15716386  0.45786545  0.66935922     0.08200
H714        H  0.12848435  0.03484701  0.75618166     0.08200
H715        H  0.16296360  0.51216874  0.76477921     0.08200
H716        H  0.12575571  0.99145427  0.76029226     0.05000
C717        C  0.23341483  0.07026450  0.79671453    -0.20800
C718        C  0.24200979  0.07237465  0.77664700    -0.07400
C719        C  0.24886574  0.10407252  0.76893692     0.13500
C720        C  0.25183305  0.13077339  0.78172557    -0.20900
C721        C  0.24536242  0.12767613  0.80176704    -0.07400
C722        C  0.23498958  0.09731549  0.80923959     0.13500
C723        C  0.22585126  0.09325699  0.83054221    -0.24200
H724        H  0.22433572  0.04777028  0.80287499     0.14800
H725        H  0.25809810  0.15458818  0.77585691     0.14800
C726        C  0.25222522  0.11151290  0.74738056    -0.24200
H727        H  0.21907094  0.06768182  0.83412442     0.05000
H728        H  0.20457804  0.10888979  0.83418908     0.08200
H729        H  0.24685069  0.10027159  0.83983563     0.08200
H730        H  0.23529010  0.13155400  0.74350302     0.08200
H731        H  0.24582477  0.09088625  0.73780419     0.08200
H732        H  0.27764305  0.11946680  0.74402999     0.05000
C733        C  0.27626553  0.43749393  0.77659336    -0.20800
C734        C  0.24533190  0.44854945  0.77117983    -0.07400
C735        C  0.21752036  0.42948025  0.77547037     0.13500
C736        C  0.22122250  0.39980529  0.78531599    -0.20900
C737        C  0.25198111  0.38923955  0.79178272    -0.07400
C738        C  0.28012047  0.40814053  0.78689709     0.13500
C739        C  0.31415530  0.39866949  0.79293772    -0.24200
H740        H  0.29738887  0.45275124  0.77352760     0.14800
H741        H  0.19957185  0.38555761  0.78879629     0.14800
C742        C  0.18375104  0.44128070  0.77074781    -0.24200
H743        H  0.33287623  0.41603433  0.78725582     0.05000
H744        H  0.32023014  0.37420602  0.78704752     0.08200
H745        H  0.31596546  0.39871056  0.80913389     0.08200
H746        H  0.18187057  0.44608407  0.75481564     0.08200
H747        H  0.17885318  0.46392126  0.77908111     0.08200
H748        H  0.16464230  0.42316921  0.77487959     0.05000
C749        C  0.12237178  0.29879053  0.07344006    -0.20800
C750        C  0.12644318  0.26824027  0.08243925    -0.07400
C751        C  0.10912152  0.24096706  0.07491485     0.13500
C752        C  0.08849105  0.24519526  0.05881153    -0.20900
C753        C  0.08391973  0.27591237  0.05037258    -0.07400
C754        C  0.10114152  0.30304810  0.05768121     0.13500
C755        C  0.09681885  0.33697786  0.04965885    -0.24200
H756        H  0.13515032  0.31989241  0.07906427     0.14800
H757        H  0.07473560  0.22465118  0.05319313     0.14800
C758        C  0.11062027  0.20768087  0.08417045    -0.24200
H759        H  0.12071524  0.34640922  0.04424980     0.05000
H760        H  0.08764602  0.35322104  0.06146227     0.08200
H761        H  0.07932619  0.33806654  0.03739007     0.08200
H762        H  0.10215725  0.20899423  0.09963156     0.08200
H763        H  0.13592765  0.19842032  0.08349605     0.08200
H764        H  0.09485170  0.18973791  0.07653262     0.05000
C765        C  0.39763316  0.30525053  0.05815221    -0.20800
C766        C  0.41479757  0.27727802  0.05256408    -0.07400
C767        C  0.40878691  0.24757429  0.06243058     0.13500
C768        C  0.38540103  0.24652198  0.07753644    -0.20900
C769        C  0.36828365  0.27454054  0.08343464    -0.07400
C770        C  0.37468049  0.30448234  0.07357580     0.13500
C771        C  0.35763834  0.33580341  0.07897364    -0.24200
H772        H  0.40269890  0.32795348  0.05055425     0.14800
H773        H  0.38100916  0.22355950  0.08498818     0.14800
C774        C  0.42683056  0.21662457  0.05753915    -0.24200
H775        H  0.36486113  0.35619021  0.06911067     0.05000
H776        H  0.36427441  0.34312210  0.09405758     0.08200
H777        H  0.33074464  0.33265354  0.07787429     0.08200
H778        H  0.44052687  0.20831554  0.07057303     0.08200
H779        H  0.44450314  0.21954523  0.04526735     0.08200
H780        H  0.40902873  0.19741295  0.05338223     0.05000
C781        C  0.08452306  0.25332581  0.93829251    -0.20800
C782        C  0.08223693  0.28309036  0.94814945    -0.07400
C783        C  0.10324427  0.30905824  0.94281963     0.13500
C784        C  0.12585380  0.30458574  0.92749169    -0.20900
C785        C  0.12827832  0.27469244  0.91751302    -0.07400
C786        C  0.10722918  0.24863356  0.92309419     0.13500
C787        C  0.10765826  0.21599007  0.91298692    -0.24200
H788        H  0.06825527  0.23359501  0.94258909     0.14800
H789        H  0.14185923  0.32465029  0.92341153     0.14800
C790        C  0.10235138  0.34168067  0.95290813    -0.24200
H791        H  0.08846685  0.19932585  0.91885796     0.05000
H792        H  0.13155847  0.20391862  0.91525829     0.08200
H793        H  0.10308969  0.21921760  0.89711078     0.08200
H794        H  0.12652231  0.34675322  0.95953856     0.08200
H795        H  0.08354499  0.34292761  0.96466438     0.08200
H796        H  0.09696689  0.36103478  0.94204657     0.05000
C797        C  0.38580065  0.24556544  0.92492963    -0.20800
C798        C  0.36959600  0.27362643  0.91832475    -0.07400
C799        C  0.37482046  0.30358584  0.92832984     0.13500
C800        C  0.39659679  0.30461697  0.94409377    -0.20900
C801        C  0.41363699  0.27686509  0.94996533    -0.07400
C802        C  0.40799723  0.24692715  0.94045615     0.13500
C803        C  0.42585773  0.21656694  0.94651148    -0.24200
H804        H  0.38187698  0.22254242  0.91755307     0.14800
H805        H  0.40116122  0.32744073  0.95158225     0.14800
C806        C  0.35789364  0.33473252  0.92267295    -0.24200
H807        H  0.41850129  0.19514161  0.93763952     0.05000
H808        H  0.42040863  0.21106319  0.96211871     0.08200
H809        H  0.45260267  0.22021759  0.94458136     0.08200
H810        H  0.33097403  0.33115355  0.92308588     0.08200
H811        H  0.36596970  0.34243668  0.90782214     0.08200
H812        H  0.36378915  0.35503434  0.93280383     0.05000
C813        C  0.37519966  0.50094318  0.27844049    -0.20800
C814        C  0.37033905  0.49173484  0.29794405    -0.07400
C815        C  0.33829823  0.48624639  0.30509726     0.13500
C816        C  0.31160436  0.49101550  0.29261585    -0.20900
C817        C  0.31628823  0.50138092  0.27322562    -0.07400
C818        C  0.34871261  0.50522386  0.26582923     0.13500
C819        C  0.35664061  0.51314805  0.24472773    -0.24200
H820        H  0.39991205  0.50476278  0.27297955     0.14800
H821        H  0.28683369  0.98792584  0.29826100     0.14800
C822        C  0.33224227  0.47666020  0.32610227    -0.24200
H823        H  0.37362645  0.49451073  0.23875716     0.05000
H824        H  0.36873249  0.03718789  0.24381281     0.08200
H825        H  0.33496646  0.51312674  0.23516261     0.08200
H826        H  0.34212315  0.99547637  0.33597752     0.08200
H827        H  0.34434230  0.45306680  0.32919010     0.08200
H828        H  0.30561748  0.97368554  0.32938157     0.05000
C829        C  0.14704449  0.47687348  0.28493593    -0.20800
C830        C  0.14221856  0.49652231  0.30150042    -0.07400
C831        C  0.16744282  0.01823651  0.30712977     0.13500
C832        C  0.19579934  0.02106474  0.29543525    -0.20900
C833        C  0.19997559  0.50256406  0.27839297    -0.07400
C834        C  0.17545553  0.47983869  0.27324426     0.13500
C835        C  0.17836382  0.45993475  0.25488029    -0.24200
H836        H  0.12793449  0.45998670  0.28070846     0.14800
H837        H  0.21457557  0.03857153  0.29929837     0.14800
C838        C  0.16519244  0.03813109  0.32562147    -0.24200
H839        H  0.15681744  0.44380899  0.25278970     0.05000
H840        H  0.20039315  0.44431845  0.25561357     0.08200
H841        H  0.18014685  0.47652226  0.24208924     0.08200
H842        H  0.16046046  0.52182850  0.33833070     0.08200
H843        H  0.14540827  0.05640582  0.32443170     0.08200
H844        H  0.18824122  0.05164308  0.32846430     0.05000
C845        C  0.22237046  0.11025353  0.20397399    -0.20800
C846        C  0.24930092  0.13122125  0.20214014    -0.07400
C847        C  0.27732720  0.12524158  0.21351678     0.13500
C848        C  0.27800637  0.09794225  0.22582962    -0.20900
C849        C  0.25134645  0.07613235  0.22759293    -0.07400
C850        C  0.22275563  0.08297088  0.21642460     0.13500
C851        C  0.19216544  0.06203523  0.21710828    -0.24200
H852        H  0.20082524  0.11500116  0.19532503     0.14800
H853        H  0.30038977  0.09383190  0.23348827     0.14800
C854        C  0.30678627  0.14759772  0.21309185    -0.24200
H855        H  0.17394496  0.07005940  0.20617636     0.05000
H856        H  0.17982389  0.06391882  0.23152496     0.08200
H857        H  0.19763405  0.03624960  0.21376797     0.08200
H858        H  0.29916102  0.17297647  0.21635341     0.08200
H859        H  0.31909000  0.14651097  0.19857343     0.08200
H860        H  0.32524237  0.14060283  0.22413806     0.05000
C861        C  0.22541564  0.44894461  0.21373885    -0.20800
C862        C  0.25172307  0.45358525  0.22645713    -0.07400
C863        C  0.27532322  0.42872357  0.22830720     0.13500
C864        C  0.27146484  0.39963974  0.21771474    -0.20900
C865        C  0.24474881  0.39469823  0.20526168    -0.07400
C866        C  0.22133917  0.41986598  0.20327551     0.13500
C867        C  0.19266088  0.41717606  0.18966236    -0.24200
H868        H  0.20789278  0.46842648  0.21190730     0.14800
H869        H  0.28976727  0.38072597  0.21894472     0.14800
C870        C  0.30567694  0.43334441  0.24032139    -0.24200
H871        H  0.17782423  0.43979463  0.18952305     0.05000
H872        H  0.17630483  0.39700446  0.19446630     0.08200
H873        H  0.20146985  0.41282441  0.17447338     0.08200
H874        H  0.29929971  0.43586035  0.25602045     0.08200
H875        H  0.31903010  0.45534175  0.23519406     0.08200
H876        H  0.32251591  0.41228500  0.23894644     0.05000
C877        C  0.25444647  0.54481426  0.23989308     0.86000
C878        C  0.28558227  0.54005321  0.25220998    -0.54300
C879        C  0.28704054  0.01073686  0.26172420     0.08900
C880        C  0.25626894  0.98931953  0.25903221     0.19800
C881        C  0.25334866  0.51428827  0.22685898    -0.55000
C882        C  0.25414834  0.98535590  0.23671148     0.09000
C883        C  0.22694562  0.54047455  0.25506783    -0.54500
C884        C  0.22706680  0.01131776  0.26468399     0.09600
H885        H  0.30512815  0.55754969  0.25391817     0.14100
H886        H  0.25648881  0.96597074  0.26722511    -0.00200
H887        H  0.25198543  0.01547188  0.21099245     0.14400
H888        H  0.20878732  0.55899389  0.25817608     0.14200
N889        N  0.44800039  0.78281539  0.00106932    -0.37100
N890        N  0.99809732  0.78395481  0.97040128    -0.57700
N891        N  0.04915597  0.78546106  0.99979073    -0.37100
N892        N  0.99906251  0.78055645  0.03040487    -0.57700
C893        C  0.42909115  0.77704687  0.98529170     0.26500
C894        C  0.42949724  0.77705764  0.01722678     0.26500
C895        C  0.06741878  0.78065854  0.98345826     0.26500
C896        C  0.06790024  0.77748186  0.01526844     0.26500
C897        C  0.47126383  0.78676431  0.95913960     0.35100
C898        C  0.02414689  0.78972808  0.95856644     0.35100
C899        C  0.47288147  0.78356268  0.04249116     0.35100
C900        C  0.02581302  0.78324428  0.04174451     0.35100
C901        C  0.39786752  0.76837822  0.99151898    -0.22400
C902        C  0.39809882  0.76847174  0.01165805    -0.22400
C903        C  0.09843207  0.77037623  0.98864491    -0.22400
C904        C  0.09872970  0.76837716  0.00872815    -0.22400
C905        C  0.48035457  0.79422083  0.94004449    -0.23500
C906        C  0.01382640  0.79620904  0.93970040    -0.23500
C907        C  0.48308543  0.78790144  0.06160528    -0.23500
C908        C  0.01660127  0.78765488  0.06113761    -0.23500
C909        C  0.43877450  0.78057408  0.96543668    -0.18800
C910        C  0.43988795  0.77990443  0.03686887    -0.18800
C911        C  0.05842289  0.77939350  0.03517682    -0.18800
C912        C  0.05716214  0.78593534  0.96400771    -0.18800
H913        H  0.37700771  0.76267503  0.98249751     0.14100
H914        H  0.37749080  0.76271466  0.02111336     0.14100
H915        H  0.11873625  0.76474730  0.97897068     0.14100
H916        H  0.11931262  0.76099065  0.01750802     0.14100
H917        H  0.46455055  0.79745114  0.92758043     0.12400
H918        H  0.02889233  0.80111639  0.92691717     0.12400
H919        H  0.46797656  0.79039837  0.07460179     0.12400
H920        H  0.03235329  0.78998947  0.07370336     0.12400
H921        H  0.47128559  0.79286122  0.00086277     0.25600
H922        H  0.02637523  0.79648567  0.00040885     0.25600
C923        C  0.24253902  0.54144133  0.76391518     0.86000
C924        C  0.21304259  0.53924875  0.75027680    -0.54300
C925        C  0.21226464  0.01189111  0.73875993     0.08900
C926        C  0.24246704  0.98973708  0.74116121     0.19800
C927        C  0.24273120  0.50846230  0.77497464    -0.55000
C928        C  0.24257686  0.98168327  0.76306493     0.09000
C929        C  0.27272618  0.53864655  0.75045011    -0.54500
C930        C  0.27267581  0.01206018  0.73826305     0.09600
H931        H  0.19380951  0.55742943  0.75019788     0.14100
H932        H  0.24245571  0.96779887  0.73165358    -0.00200
H933        H  0.24507335  0.00541789  0.79059602     0.14400
H934        H  0.29304547  0.55572904  0.75088540     0.14200
C935        C  0.50239530  0.70267284  0.73877324     0.86000
C936        C  0.47492632  0.70548653  0.75440515    -0.54300
C937        C  0.47637621  0.73305566  0.76558738     0.08900
C938        C  0.00481725  0.75596752  0.75999352     0.19800
C939        C  0.49851743  0.73461350  0.72705772    -0.55000
C940        C  0.50036390  0.76229910  0.73806439     0.09000
C941        C  0.03399885  0.70678650  0.75055756    -0.54500
C942        C  0.03586000  0.73487812  0.76129790     0.09600
H943        H  0.45421600  0.68915563  0.75576554     0.14100
H944        H  0.00569299  0.77870121  0.76877909    -0.00200
H945        H  0.99395752  0.73539413  0.71143949     0.14400
H946        H  0.05312899  0.68852736  0.75064893     0.14200
N947        N  0.24785447  0.95937201  0.00005378    -0.37100
N948        N  0.24981411  0.51044663  0.97035488    -0.57700
N949        N  0.24576308  0.55998180  0.00076332    -0.37100
N950        N  0.24725863  0.50921806  0.03046061    -0.57700
C951        C  0.25536496  0.94150019  0.98399945     0.26500
C952        C  0.25408980  0.94077140  0.01595092     0.26500
C953        C  0.25250466  0.57887388  0.98498402     0.26500
C954        C  0.25113463  0.57829848  0.01686999     0.26500
C955        C  0.24562757  0.98422835  0.95873032     0.35100
C956        C  0.24462740  0.53700179  0.95906005     0.35100
C957        C  0.24317864  0.98246018  0.04182017     0.35100
C958        C  0.24213851  0.53527265  0.04220088     0.35100
C959        C  0.26613783  0.91097933  0.98975784    -0.22400
C960        C  0.26521018  0.91047592  0.00992737    -0.22400
C961        C  0.26172548  0.60973736  0.99112511    -0.22400
C962        C  0.26081874  0.60938996  0.01124792    -0.22400
C963        C  0.23772733  0.99422479  0.93996324    -0.23500
C964        C  0.23728468  0.52762300  0.94013306    -0.23500
C965        C  0.23573259  0.99162840  0.06087847    -0.23500
C966        C  0.23518159  0.52502012  0.06111807    -0.23500
C967        C  0.25101496  0.95145806  0.96433181    -0.18800
C968        C  0.24875596  0.94995412  0.03570035    -0.18800
C969        C  0.24612018  0.56820115  0.03647746    -0.18800
C970        C  0.24857048  0.56963858  0.96521615    -0.18800
H971        H  0.27354673  0.89102177  0.98039396     0.14100
H972        H  0.27190552  0.89009521  0.01910987     0.14100
H973        H  0.26815599  0.63048122  0.98205832     0.14100
H974        H  0.26651687  0.62979771  0.02065208     0.14100
H975        H  0.23307798  0.97903514  0.92734662     0.12400
H976        H  0.23239627  0.54323306  0.92772836     0.12400
H977        H  0.23178377  0.97589401  0.07341212     0.12400
H978        H  0.23068492  0.54004762  0.07386018     0.12400
H979        H  0.23588302  0.98161948  0.00011691     0.25600
H980        H  0.23469351  0.53719445  0.00051609     0.25600
N981        N  0.23732826  0.83733674  0.87352878    -0.06600
N982        N  0.22691802  0.85573229  0.88815736    -0.58800
N983        N  0.26858080  0.83044518  0.82809666    -0.06300
N984        N  0.27976895  0.84859928  0.81354394    -0.60900
N985        N  0.23642908  0.83085066  0.82853459    -0.05900
N986        N  0.22530304  0.84917569  0.81423133    -0.58700
N987        N  0.26944156  0.83698926  0.87292912    -0.05600
N988        N  0.28149568  0.85517966  0.88707441    -0.61200
C989        C  0.25476193  0.86694709  0.89642733     0.95500
C990        C  0.25255174  0.86023028  0.80489827     0.95300
N991        N  0.32282286  0.74422628  0.83235193    -0.06800
N992        N  0.34508312  0.73090242  0.82083013    -0.59300
N993        N  0.32210149  0.78269311  0.87540781    -0.04900
N994        N  0.33830697  0.79631875  0.88985576    -0.60600
N995        N  0.32181235  0.75080203  0.87727601    -0.06900
N996        N  0.33800179  0.74218735  0.89312552    -0.59600
N997        N  0.32372525  0.77616412  0.83069347    -0.04600
N998        N  0.34673045  0.78503305  0.81800212    -0.60700
Mn999      Mn  0.29657834  0.80726050  0.85156015     1.18400
C1000       C  0.35970632  0.75649770  0.81175075     0.97600
C1001       C  0.34808817  0.77091794  0.90091904     0.98300
N1002       N  0.17953512  0.77806277  0.83241178    -0.06900
N1003       N  0.15814846  0.78736144  0.81912350    -0.63200
N1004       N  0.18178629  0.75262131  0.87873901    -0.05700
N1005       N  0.16333523  0.74369659  0.89373854    -0.63900
N1006       N  0.18204233  0.78453223  0.87702457    -0.06400
N1007       N  0.16381550  0.79792917  0.89086684    -0.63400
N1008       N  0.17950309  0.74609188  0.83407205    -0.05300
N1009       N  0.15842709  0.73300454  0.82182880    -0.64100
Mn1010     Mn  0.20821726  0.80850640  0.85274093     1.10700
C1011       C  0.14552750  0.75892703  0.81249890     0.98800
C1012       C  0.15219518  0.77211914  0.90120278     0.98900
N1013       N  0.26731582  0.69680750  0.87994260    -0.06400
N1014       N  0.27901863  0.67924862  0.89442863    -0.61800
N1015       N  0.23351871  0.69125180  0.83580726    -0.05700
N1016       N  0.22092910  0.67041722  0.82322864    -0.58500
N1017       N  0.26571091  0.69058676  0.83500943    -0.07000
N1018       N  0.27556261  0.66911848  0.82177483    -0.61300
N1019       N  0.23522061  0.69714749  0.88065504    -0.06000
N1020       N  0.22453433  0.67963735  0.89568327    -0.58500
Mn1021     Mn  0.29506871  0.71988960  0.85603414     1.20200
Mn1022     Mn  0.20692273  0.72116900  0.85736698     1.10100
Cl1023     Cl  0.25168678  0.76414372  0.85422933    -0.86500
C1024       C  0.25219951  0.66859836  0.90425003     0.95900
C1025       C  0.24732240  0.65705959  0.81438758     0.95600
N1026       N  0.22812963  0.83134786  0.17166756    -0.06600
N1027       N  0.21674068  0.85189334  0.18490708    -0.58800
N1028       N  0.26117173  0.83555507  0.12688756    -0.06300
N1029       N  0.27278082  0.85260731  0.11193538    -0.60900
N1030       N  0.22903611  0.83505835  0.12663254    -0.05900
N1031       N  0.21822407  0.85179235  0.11150091    -0.58700
N1032       N  0.26032780  0.83118046  0.17187834    -0.05600
N1033       N  0.27125537  0.85156019  0.18526125    -0.61200
C1034       C  0.24385483  0.86436875  0.19335659     0.95500
C1035       C  0.24574595  0.86252257  0.10234850     0.95300
N1036       N  0.31547782  0.75105697  0.12274387    -0.06800
N1037       N  0.33362042  0.74254276  0.10749742    -0.59300
N1038       N  0.31664819  0.77673253  0.16952984    -0.04900
N1039       N  0.33755018  0.78567442  0.18323327    -0.60600
N1040       N  0.31668303  0.74480647  0.16763761    -0.06900
N1041       N  0.33722411  0.73144566  0.18008511    -0.59600
N1042       N  0.31545533  0.78290615  0.12467681    -0.04600
N1043       N  0.33330469  0.79666598  0.11077893    -0.60700
Mn1044     Mn  0.28899235  0.80729252  0.14851371     1.18400
C1045       C  0.34445204  0.77134717  0.10004763     0.97600
C1046       C  0.34975290  0.75708498  0.18992075     0.98300
N1047       N  0.17479964  0.78067181  0.12466255    -0.06900
N1048       N  0.15789454  0.79296512  0.11005282    -0.63200
N1049       N  0.17322054  0.74433492  0.16845678    -0.05700
N1050       N  0.15085629  0.73141322  0.18017823    -0.63900
N1051       N  0.17247859  0.77634459  0.16956266    -0.06400
N1052       N  0.14946428  0.78562929  0.18208861    -0.63400
N1053       N  0.17492845  0.74868628  0.12369065    -0.05300
N1054       N  0.15816877  0.73862515  0.10842404    -0.64100
Mn1055     Mn  0.20045531  0.80662707  0.14828536     1.10700
C1056       C  0.14752445  0.76644977  0.10001547     0.98800
C1057       C  0.13627662  0.75731733  0.18880389     0.98900
N1058       N  0.26184010  0.69133899  0.16583595    -0.06400
N1059       N  0.27401099  0.67150532  0.17900775    -0.61800
N1060       N  0.22883744  0.69510636  0.12178048    -0.05700
N1061       N  0.21712785  0.67689029  0.10756613    -0.58500
N1062       N  0.26094548  0.69563350  0.12108051    -0.07000
N1063       N  0.27163155  0.67756580  0.10637177    -0.61300
N1064       N  0.22969201  0.69082050  0.16657006    -0.06000
N1065       N  0.21944088  0.67028723  0.18025177    -0.58500
Mn1066     Mn  0.28934223  0.72007324  0.14419227     1.20200
Mn1067     Mn  0.20107648  0.71908438  0.14526883     1.10100
Cl1068     Cl  0.24494734  0.76327246  0.14673650    -0.86500
C1069       C  0.24747189  0.65869746  0.18807429     0.95900
C1070       C  0.24398192  0.66615766  0.09789983     0.95600
N1071       N  0.48089081  0.55564808  0.66561314    -0.06600
N1072       N  0.47084141  0.57561673  0.67957754    -0.58800
N1073       N  0.01069721  0.54827173  0.61958253    -0.06300
N1074       N  0.02139689  0.56506071  0.60428928    -0.60900
N1075       N  0.47860088  0.54898153  0.62045307    -0.05900
N1076       N  0.46691249  0.56616049  0.60572378    -0.58700
N1077       N  0.01303741  0.55567260  0.66451668    -0.05600
N1078       N  0.02543047  0.57576789  0.67760825    -0.61200
C1079       C  0.49889094  0.58778867  0.68708666     0.95500
C1080       C  0.49383691  0.57597541  0.59559384     0.95300
N1081       N  0.06413451  0.96096204  0.62435265    -0.06800
N1082       N  0.08112345  0.94649990  0.61037316    -0.59300
N1083       N  0.06718131  0.50141373  0.66650240    -0.04900
N1084       N  0.08850421  0.51514848  0.67834111    -0.60600
N1085       N  0.06687257  0.96942200  0.66894505    -0.06900
N1086       N  0.08817181  0.96087033  0.68245880    -0.59600
N1087       N  0.06427751  0.49279856  0.62188296    -0.04600
N1088       N  0.08173803  0.50052117  0.60618770    -0.60700
Mn1089     Mn  0.03943721  0.52523653  0.64299810     1.18400
C1090       C  0.09186052  0.97133604  0.59897361     0.97600
C1091       C  0.10118224  0.98960280  0.68834453     0.98300
N1092       N  0.42405023  0.49549206  0.62456132    -0.06900
N1093       N  0.40640150  0.50476976  0.60951695    -0.63200
N1094       N  0.42357656  0.97042479  0.67104168    -0.05700
N1095       N  0.40183400  0.96187411  0.68458590    -0.63900
N1096       N  0.42441633  0.50238482  0.66924898    -0.06400
N1097       N  0.40347576  0.51603369  0.68150607    -0.63400
N1098       N  0.42368305  0.96366598  0.62623856    -0.05300
N1099       N  0.40562504  0.95066118  0.61233447    -0.64100
Mn1100     Mn  0.45139165  0.52635390  0.64504841     1.10700
C1101       C  0.39495238  0.97671439  0.60203951     0.98800
C1102       C  0.38974659  0.99057838  0.69122578     0.98900
N1103       N  0.01004754  0.91553096  0.67339910    -0.06400
N1104       N  0.02096811  0.89690748  0.68766557    -0.61800
N1105       N  0.47736956  0.90941659  0.62836633    -0.05700
N1106       N  0.46600046  0.89247921  0.61344097    -0.58500
N1107       N  0.00948268  0.90884494  0.62831859    -0.07000
N1108       N  0.02052766  0.89159640  0.61338101    -0.61300
N1109       N  0.47789959  0.91552203  0.67351408    -0.06000
N1110       N  0.46654899  0.89690528  0.68784487    -0.58500
Mn1111     Mn  0.03826843  0.93792662  0.64904664     1.20200
Mn1112     Mn  0.44995897  0.93894866  0.64992614     1.10100
Cl1113     Cl  0.49487471  0.98213740  0.64693883    -0.86500
C1114       C  0.49362038  0.88540001  0.69673562     0.95900
C1115       C  0.49319392  0.88143777  0.60414811     0.95600
N1116       N  0.07464356  0.97414544  0.33162854    -0.06600
N1117       N  0.09749678  0.96529068  0.31885692    -0.58800
N1118       N  0.07182309  0.50017469  0.37798031    -0.06300
N1119       N  0.08854397  0.50918824  0.39351746    -0.60900
N1120       N  0.07203960  0.96833760  0.37638416    -0.05900
N1121       N  0.08876282  0.95506021  0.39069281    -0.58700
N1122       N  0.07395830  0.50609668  0.33312070    -0.05600
N1123       N  0.09612851  0.51948123  0.32145738    -0.61200
C1124       C  0.11068513  0.99388074  0.31257724     0.95500
C1125       C  0.09898685  0.98077490  0.40138834     0.95300
N1126       N  0.48518913  0.55390327  0.37979494    -0.06800
N1127       N  0.47370604  0.57176455  0.39434344    -0.59300
N1128       N  0.01778755  0.55954868  0.33508983    -0.04900
N1129       N  0.02875366  0.58148298  0.32243855    -0.60600
N1130       N  0.48559216  0.55867752  0.33502996    -0.06900
N1131       N  0.47407225  0.57982023  0.32227698    -0.59600
N1132       N  0.01730068  0.55424967  0.37977271    -0.04600
N1133       N  0.02824515  0.57230986  0.39428337    -0.60700
Mn1134     Mn  0.04584527  0.53064263  0.35646895     1.18400
C1135       C  0.50080580  0.58296730  0.40341305     0.97600
C1136       C  0.50122705  0.59350484  0.31434830     0.98300
N1137       N  0.01885648  0.91408512  0.37441200    -0.06900
N1138       N  0.03022772  0.89701020  0.38927617    -0.63200
N1139       N  0.48739487  0.91858493  0.32934117    -0.05700
N1140       N  0.47700255  0.90052731  0.31464969    -0.63900
N1141       N  0.01955189  0.91954683  0.32926489    -0.06400
N1142       N  0.03148993  0.90222870  0.31463265    -0.63400
N1143       N  0.48671041  0.91378717  0.37466807    -0.05300
N1144       N  0.47566996  0.89654092  0.38969580    -0.64100
Mn1145     Mn  0.04685639  0.94327975  0.35272875     1.10700
C1146       C  0.50303376  0.88624687  0.39880354     0.98800
C1147       C  0.50478254  0.89038124  0.30551751     0.98900
N1148       N  0.43124337  0.50363644  0.33312682    -0.06400
N1149       N  0.41116902  0.51622846  0.32015900    -0.61800
N1150       N  0.43133706  0.96685849  0.37698189    -0.05700
N1151       N  0.41311778  0.95424361  0.39121236    -0.58500
N1152       N  0.43128565  0.49882162  0.37803670    -0.07000
N1153       N  0.41299864  0.50852596  0.39291968    -0.61300
N1154       N  0.43108495  0.97160093  0.33200163    -0.06000
N1155       N  0.41072351  0.96175478  0.31829554    -0.58500
Mn1156     Mn  0.45769724  0.52932656  0.35647546     1.20200
Mn1157     Mn  0.45841202  0.94179837  0.35315316     1.10100
Cl1158     Cl  0.50213437  0.98631749  0.35457305    -0.86500
C1159       C  0.39886115  0.98985263  0.31084885     0.95900
C1160       C  0.40175061  0.98057950  0.40113664     0.95600
N1161       N  0.50039218  0.68789189  0.50063254    -0.37100
N1162       N  0.49814129  0.73695753  0.53080704    -0.57700
N1163       N  0.49996879  0.78825885  0.50086646    -0.37100
N1164       N  0.50556351  0.73886978  0.47072020    -0.57700
C1165       C  0.50497733  0.66893364  0.51660282     0.26500
C1166       C  0.50837787  0.66988977  0.48475869     0.26500
C1167       C  0.50501426  0.80610980  0.51721171     0.26500
C1168       C  0.50837362  0.80709225  0.48528963     0.26500
C1169       C  0.49253988  0.71036918  0.54211083     0.35100
C1170       C  0.49231406  0.76318234  0.54222309     0.35100
C1171       C  0.50150195  0.71258942  0.45906972     0.35100
C1172       C  0.50180728  0.76538404  0.45917925     0.35100
C1173       C  0.51580644  0.63844538  0.51077721    -0.22400
C1174       C  0.51786974  0.63901936  0.49066846    -0.22400
C1175       C  0.51640518  0.83681447  0.51194653    -0.22400
C1176       C  0.51851037  0.83742927  0.49179383    -0.22400
C1177       C  0.48339832  0.71972704  0.56083275    -0.23500
C1178       C  0.48324256  0.75316029  0.56091538    -0.23500
C1179       C  0.49566130  0.72244820  0.44000851    -0.23500
C1180       C  0.49586457  0.75587559  0.44007566    -0.23500
C1181       C  0.49791269  0.67782023  0.53618417    -0.18800
C1182       C  0.50502298  0.67980598  0.46506220    -0.18800
C1183       C  0.50562914  0.79805871  0.46536898    -0.18800
C1184       C  0.49804608  0.79596609  0.53665685    -0.18800
H1185       H  0.52128826  0.61778777  0.52003397     0.14100
H1186       H  0.52520291  0.61886707  0.48143706     0.14100
H1187       H  0.52244346  0.85677059  0.52162014     0.14100
H1188       H  0.52652201  0.85789249  0.48293507     0.14100
H1189       H  0.47802901  0.70410831  0.57323820     0.12400
H1190       H  0.47777590  0.76834617  0.57345523     0.12400
H1191       H  0.49199845  0.70715429  0.42731689     0.12400
H1192       H  0.49230803  0.77138728  0.42745552     0.12400
H1193       H  0.48874858  0.71027396  0.50034742     0.25600
H1194       H  0.48810307  0.76589764  0.50031972     0.25600
N1195       N  0.19765606  0.95982932  0.50102473    -0.37100
N1196       N  0.24775008  0.96165497  0.53107239    -0.57700
N1197       N  0.29878467  0.96354162  0.50099314    -0.37100
N1198       N  0.24872018  0.96503079  0.47097511    -0.57700
C1199       C  0.17860082  0.96446549  0.51707387     0.26500
C1200       C  0.17892229  0.96529707  0.48515709     0.26500
C1201       C  0.31708208  0.96854566  0.51710728     0.24500
C1202       C  0.31766156  0.97082083  0.48520647     0.26500
C1203       C  0.22119949  0.95693051  0.54264752     0.35100
C1204       C  0.27409182  0.95765872  0.54258322     0.35100
C1205       C  0.22250396  0.96199897  0.45919784     0.35100
C1206       C  0.27548356  0.96420300  0.45920199     0.35100
C1207       C  0.14707822  0.97193935  0.51132227    -0.22400
C1208       C  0.14722439  0.97226485  0.49120677    -0.22400
C1209       C  0.34825441  0.97841885  0.51148227    -0.22400
C1210       C  0.34862587  0.97982357  0.49135502    -0.22400
C1211       C  0.23069505  0.95002256  0.56161926    -0.23500
C1212       C  0.26419911  0.95041088  0.56157464    -0.23500
C1213       C  0.23271962  0.95969521  0.43983335    -0.23500
C1214       C  0.26618884  0.96090648  0.43985185    -0.23500
C1215       C  0.18849382  0.96126017  0.53677767    -0.18800
C1216       C  0.18939114  0.96376507  0.46535333    -0.18800
C1217       C  0.30817863  0.96839204  0.46537627    -0.18800
C1218       C  0.30685172  0.96328469  0.53671327    -0.18800
H1219       H  0.12607664  0.97664035  0.52063782     0.14100
H1220       H  0.12632074  0.97729366  0.48210970     0.14100
H1221       H  0.36870374  0.98386530  0.52088755     0.14100
H1222       H  0.36939958  0.98661120  0.48228512     0.14100
H1223       H  0.21509746  0.94565947  0.57424462     0.12400
H1224       H  0.27951162  0.94644666  0.57418465     0.12400
H1225       H  0.21765918  0.95780998  0.42694546     0.12400
H1226       H  0.28185305  0.96005508  0.42700989     0.12400
H1227       H  0.22126392  0.95082689  0.50085472     0.25600
H1228       H  0.27590183  0.95269120  0.50073420     0.25600
C1229       C  0.49461859  0.71062134  0.26522629     0.86000
C1230       C  0.02207544  0.71164065  0.24981592    -0.54300
C1231       C  0.02062021  0.73722247  0.23709412     0.08900
C1232       C  0.49183120  0.76044678  0.24118778     0.19800
C1233       C  0.49714757  0.74437792  0.27529707    -0.55000
C1234       C  0.49579910  0.77023206  0.26272075     0.09000
C1235       C  0.46252669  0.71290543  0.25371799    -0.54500
C1236       C  0.46085252  0.73875195  0.24112645     0.09600
H1237       H  0.04201687  0.69424076  0.24968177     0.14100
H1238       H  0.49085550  0.78161081  0.23105928    -0.00200
H1239       H  0.49945595  0.74864878  0.29082543     0.14400
H1240       H  0.44284661  0.69522473  0.25529346     0.14200
C1241       C  0.47568767  0.85425004  0.28246506    -0.20800
C1242       C  0.50529242  0.86273685  0.29139207    -0.07400
C1243       C  0.03324028  0.84303533  0.28778638     0.13500
C1244       C  0.02963916  0.81390957  0.27718375    -0.20900
C1245       C  0.49925351  0.80422722  0.26978803    -0.07400
C1246       C  0.47228270  0.82540811  0.27172772     0.13500
C1247       C  0.43908089  0.81792906  0.26358144    -0.24200
H1248       H  0.45444005  0.86964433  0.28450236     0.14800
H1249       H  0.05037583  0.79776579  0.27535978     0.14800
C1250       C  0.06664449  0.85140033  0.29552284    -0.24200
H1251       H  0.43159726  0.83787519  0.25360330     0.05000
H1252       H  0.42095789  0.81588067  0.27572388     0.08200
H1253       H  0.43856369  0.79512204  0.25519442     0.08200
H1254       H  0.06626301  0.85113358  0.31176265     0.08200
H1255       H  0.07437126  0.87575161  0.29003961     0.08200
H1256       H  0.08541214  0.83358501  0.29066380     0.05000
C1257       C  0.49341465  0.62035853  0.28241225    -0.20800
C1258       C  0.50042189  0.62324097  0.30226155    -0.07400
C1259       C  0.00590578  0.65429283  0.31030937     0.13500
C1260       C  0.00404455  0.68196384  0.29824805    -0.20900
C1261       C  0.49668775  0.67969806  0.27808257    -0.07400
C1262       C  0.49217431  0.64775608  0.27009847     0.13500
C1263       C  0.48627847  0.64060005  0.24871719    -0.24200
H1264       H  0.48938806  0.59627230  0.27633840     0.14800
H1265       H  0.00903215  0.70504484  0.30500929     0.14800
C1266       C  0.01320230  0.65826855  0.33177706    -0.24200
H1267       H  0.50534004  0.62359434  0.24325900     0.05000
H1268       H  0.48706692  0.66200290  0.23898293     0.08200
H1269       H  0.46198477  0.62878085  0.24710226     0.08200
H1270       H  0.03608973  0.64523886  0.33541273     0.08200
H1271       H  0.99274324  0.64807331  0.34068980     0.08200
H1272       H  0.01637809  0.68426580  0.33587178     0.05000
C1273       C  0.47474487  0.63936096  0.44528088    -0.20800
C1274       C  0.50459893  0.65417751  0.44975689    -0.07400
C1275       C  0.03311236  0.64521067  0.43945947     0.13500
C1276       C  0.03102303  0.62177706  0.42459574    -0.20900
C1277       C  0.50099940  0.60710204  0.41968439    -0.07400
C1278       C  0.47243670  0.61596594  0.43038252     0.13500
C1279       C  0.43946234  0.60090067  0.42654531    -0.24200
H1280       H  0.45304654  0.64648790  0.45341875     0.14800
H1281       H  0.05306988  0.61516235  0.41666445     0.14800
C1282       C  0.06566878  0.66041789  0.44418501    -0.24200
H1283       H  0.42047331  0.60988005  0.43691808     0.05000
H1284       H  0.44090883  0.57405053  0.42830116     0.08200
H1285       H  0.43130422  0.60717919  0.41156793     0.08200
H1286       H  0.07182337  0.65542351  0.45968964     0.08200
H1287       H  0.06457758  0.68717024  0.44185952     0.08200
H1288       H  0.08561506  0.65055852  0.43480455     0.05000
C1289       C  0.03273325  0.84959410  0.42163511    -0.20800
C1290       C  0.50362592  0.86593464  0.41698299    -0.07400
C1291       C  0.47633862  0.86259548  0.42987817     0.13500
C1292       C  0.47835185  0.84147396  0.44607663    -0.20900
C1293       C  0.50689745  0.82393161  0.44997056    -0.07400
C1294       C  0.03476811  0.82890490  0.43797436     0.13500
C1295       C  0.06699245  0.81263862  0.44196916    -0.24200
H1296       H  0.05410185  0.85250672  0.41228270     0.14800
H1297       H  0.45718270  0.83787276  0.45550969     0.14800
C1298       C  0.44511785  0.88134231  0.42700440    -0.24200
H1299       H  0.08620082  0.83154818  0.44386711     0.05000
H1300       H  0.07381844  0.79685929  0.42940711     0.08200
H1301       H  0.06643584  0.79744324  0.45539446     0.08200
H1302       H  0.43305762  0.87348663  0.41331600     0.08200
H1303       H  0.45051154  0.90787459  0.42640987     0.08200
H1304       H  0.42742193  0.87719585  0.43919537     0.05000
C1305       C  0.13083113  0.94576599  0.42387838    -0.20800
C1306       C  0.12072340  0.97739194  0.41863184    -0.07400
C1307       C  0.13205707  0.00430302  0.42974433     0.13500
C1308       C  0.15377013  0.99884626  0.44517989    -0.20900
C1309       C  0.16434976  0.96742229  0.44989513    -0.07400
C1310       C  0.15249123  0.94049019  0.43933066     0.13500
C1311       C  0.16296246  0.90628166  0.44423979    -0.24200
H1312       H  0.12215137  0.92491083  0.41569516     0.14800
H1313       H  0.16307559  0.01929104  0.45350863     0.14800
C1314       C  0.12192237  0.03886845  0.42554402    -0.24200
H1315       H  0.15111611  0.88798287  0.43463284     0.05000
H1316       H  0.15615687  0.90056938  0.45963510     0.08200
H1317       H  0.18952996  0.40383037  0.44250792     0.08200
H1318       H  0.09493324  0.04106585  0.42676387     0.08200
H1319       H  0.13047783  0.54603136  0.41055030     0.08200
H1320       H  0.13278203  0.05637704  0.43605191     0.05000
C1321       C  0.37413761  0.94840374  0.42753984    -0.20800
C1322       C  0.37872248  0.97873449  0.41823903    -0.07400
C1323       C  0.36076327  0.00600881  0.42529710     0.13500
C1324       C  0.33866112  0.00190049  0.44099249    -0.20900
C1325       C  0.33393568  0.97150788  0.44992022    -0.07400
C1326       C  0.35214168  0.94447490  0.44328029     0.13500
C1327       C  0.34862330  0.91108013  0.45229046    -0.24200
H1328       H  0.38768765  0.92737291  0.42244852     0.14800
H1329       H  0.32406045  0.52244532  0.44595170     0.14800
C1330       C  0.36343840  0.53937969  0.41601808    -0.24200
H1331       H  0.37260153  0.90317485  0.45807699     0.05000
H1332       H  0.34074726  0.39348584  0.44107247     0.08200
H1333       H  0.33061051  0.91023971  0.46450050     0.08200
H1334       H  0.35691282  0.53823127  0.40030042     0.08200
H1335       H  0.38908556  0.04867552  0.41784973     0.08200
H1336       H  0.34685023  0.55725014  0.42314830     0.05000
C1337       C  0.13460207  0.99522408  0.57735682    -0.20800
C1338       C  0.11575354  0.96780765  0.58260950    -0.07400
C1339       C  0.12043988  0.93815967  0.57223817     0.13500
C1340       C  0.14409525  0.93684058  0.55721749    -0.20900
C1341       C  0.16315841  0.96413715  0.55239347    -0.07400
C1342       C  0.15831422  0.99369675  0.56247343     0.13500
C1343       C  0.17815441  0.02365075  0.55748979    -0.24200
H1344       H  0.13119223  0.01796415  0.58514094     0.14800
H1345       H  0.14800464  0.91434254  0.54924782     0.14800
C1346       C  0.10045638  0.90795757  0.57650632    -0.24200
H1347       H  0.17051757  0.54502589  0.56637993     0.05000
H1348       H  0.17453854  0.03021545  0.54189392     0.08200
H1349       H  0.20418528  0.51916769  0.55980563     0.08200
H1350       H  0.07401054  0.91344440  0.57515332     0.08200
H1351       H  0.10647208  0.39895760  0.59193922     0.08200
H1352       H  0.10628014  0.88790282  0.56615041     0.05000
C1353       C  0.37053603  0.94418673  0.57519262    -0.20800
C1354       C  0.37312158  0.97435787  0.58482437    -0.07400
C1355       C  0.35426414  0.50088203  0.57793322     0.13500
C1356       C  0.33372468  0.49649958  0.56183425    -0.20900
C1357       C  0.33139287  0.96655595  0.55244166    -0.07400
C1358       C  0.35017587  0.94000906  0.55898921     0.13500
C1359       C  0.34898228  0.90697791  0.54939862    -0.24200
H1360       H  0.38437296  0.92354181  0.58036965     0.14800
H1361       H  0.31885142  0.51656218  0.55674370     0.14800
C1362       C  0.35463330  0.53378166  0.58772452    -0.24200
H1363       H  0.34070313  0.88846375  0.56024361     0.05000
H1364       H  0.37382832  0.40029914  0.54398124     0.08200
H1365       H  0.33218799  0.90607899  0.53677229     0.08200
H1366       H  0.37933541  0.54486200  0.58643550     0.08200
H1367       H  0.34762067  0.03128734  0.60347519     0.08200
H1368       H  0.33721339  0.55096013  0.58085919     0.05000
C1369       C  0.02262125  0.61999579  0.57710614    -0.20800
C1370       C  0.49392432  0.60146285  0.57995527    -0.07400
C1371       C  0.46646222  0.60807747  0.56801926     0.13500
C1372       C  0.46853268  0.63296702  0.55383215    -0.20900
C1373       C  0.49705990  0.65163347  0.55137473    -0.07400
C1374       C  0.02440570  0.64507103  0.56313035     0.13500
C1375       C  0.05552909  0.66451205  0.56087189    -0.24200
H1376       H  0.04376505  0.61525573  0.58609088     0.14800
H1377       H  0.44771635  0.63809740  0.54463620     0.14800
C1378       C  0.43509887  0.58884481  0.56978519    -0.24200
H1379       H  0.07472475  0.65601674  0.57105323     0.05000
H1380       H  0.05071156  0.69059431  0.56401540     0.08200
H1381       H  0.06509433  0.66211088  0.54568617     0.08200
H1382       H  0.42361821  0.59304744  0.58433098     0.08200
H1383       H  0.44012855  0.56247953  0.56779354     0.08200
H1384       H  0.41708256  0.59621484  0.55856201     0.05000
C1385       C  0.02339208  0.84626728  0.58060539    -0.20800
C1386       C  0.49375651  0.86129572  0.58595944    -0.07400
C1387       C  0.46608712  0.85668615  0.57382149     0.13500
C1388       C  0.46868742  0.83656621  0.55723392    -0.20900
C1389       C  0.49797229  0.82073430  0.55253440    -0.07400
C1390       C  0.02570799  0.82586314  0.56419794     0.13500
C1391       C  0.05759533  0.80921170  0.55951235    -0.24200
H1392       H  0.04481471  0.84976503  0.58958077     0.14800
H1393       H  0.44748538  0.83229607  0.54817050     0.14800
C1394       C  0.43379313  0.87283850  0.57798881    -0.24200
H1395       H  0.07699420  0.81598593  0.57003611     0.05000
H1396       H  0.06603105  0.81631066  0.54461172     0.08200
H1397       H  0.05429343  0.78236187  0.56012155     0.08200
H1398       H  0.43731170  0.89965217  0.57847977     0.08200
H1399       H  0.42352344  0.86392275  0.59210710     0.08200
H1400       H  0.41551613  0.86745515  0.56650117     0.05000
C1401       C  0.08648642  0.72571312  0.19814751    -0.20800
C1402       C  0.10496751  0.75451611  0.20013597    -0.07400
C1403       C  0.09316610  0.77917898  0.21287816     0.13500
C1404       C  0.06471574  0.77336972  0.22415397    -0.20900
C1405       C  0.04744305  0.74387881  0.22281048    -0.07400
C1406       C  0.05769840  0.72032343  0.20903613     0.13500
C1407       C  0.03782912  0.68994887  0.20527261    -0.24200
H1408       H  0.09453103  0.70715237  0.18793950     0.14800
H1409       H  0.05647985  0.79155532  0.23456300     0.14800
C1410       C  0.11070310  0.81127085  0.21516257    -0.24200
H1411       H  0.04797897  0.67565298  0.19285039     0.05000
H1412       H  0.01235258  0.69675587  0.20160471     0.08200
H1413       H  0.03762699  0.67382571  0.21827220     0.08200
H1414       H  0.11069375  0.82472230  0.20106119     0.08200
H1415       H  0.13622950  0.80704678  0.21989334     0.08200
H1416       H  0.09863107  0.82701658  0.22627168     0.05000
C1417       C  0.37293532  0.74865348  0.22298886    -0.20800
C1418       C  0.37831616  0.75428509  0.20300404    -0.07400
C1419       C  0.41071492  0.75562045  0.19571303     0.13500
C1420       C  0.43701394  0.75116407  0.20858660    -0.20900
C1421       C  0.43176944  0.74519785  0.22861948    -0.07400
C1422       C  0.39911735  0.74475236  0.23598591     0.13500
C1423       C  0.39066314  0.74166827  0.25745589    -0.24200
H1424       H  0.34803772  0.74774515  0.22857178     0.14800
H1425       H  0.46183101  0.75154263  0.20287661     0.14800
C1426       C  0.41749982  0.76113048  0.17426754    -0.24200
H1427       H  0.37441168  0.76206531  0.26184327     0.05000
H1428       H  0.41217161  0.74299607  0.26711406     0.08200
H1429       H  0.37760764  0.71828688  0.26012295     0.08200
H1430       H  0.40719808  0.78491159  0.16969399     0.08200
H1431       H  0.40608562  0.74135696  0.16557450     0.08200
H1432       H  0.44414003  0.76138505  0.17095404     0.05000
C1433       C  0.21632335  0.60767185  0.05748429    -0.20800
C1434       C  0.24613216  0.59359301  0.05201694    -0.07400
C1435       C  0.27515119  0.60395609  0.06118228     0.13500
C1436       C  0.27347801  0.62746857  0.07603440    -0.20900
C1437       C  0.24361005  0.64150746  0.08183766    -0.07400
C1438       C  0.21461495  0.63167687  0.07210227     0.13500
C1439       C  0.18190310  0.64688058  0.07637167    -0.24200
H1440       H  0.19426258  0.59988158  0.05012837     0.14800
H1441       H  0.29593233  0.63488376  0.08308263     0.14800
C1442       C  0.30832456  0.59102274  0.05549684    -0.24200
H1443       H  0.16252866  0.63744269  0.06657685     0.05000
H1444       H  0.18378627  0.67357067  0.07399616     0.08200
H1445       H  0.17409442  0.64147730  0.09163199     0.08200
H1446       H  0.30736275  0.57279669  0.04356315     0.08200
H1447       H  0.31973656  0.57932313  0.06838510     0.08200
H1448       H  0.32412304  0.61151306  0.05046714     0.05000
C1449       C  0.22189516  0.90537487  0.05475988    -0.20800
C1450       C  0.24984145  0.92433696  0.05116047    -0.07400
C1451       C  0.27737819  0.92061995  0.06320469     0.13500
C1452       C  0.27542645  0.89990312  0.07955452    -0.20900
C1453       C  0.24666332  0.88238815  0.08405427    -0.07400
C1454       C  0.22002293  0.88413128  0.07090650     0.13500
C1455       C  0.18980884  0.86337485  0.07339993    -0.24200
H1456       H  0.20115103  0.90784167  0.04511647     0.14800
H1457       H  0.29635778  0.89794100  0.08908314     0.14800
C1458       C  0.30875466  0.93861771  0.05877070    -0.24200
H1459       H  0.17286624  0.86622460  0.06091591     0.05000
H1460       H  0.17627524  0.87053235  0.08685107     0.08200
H1461       H  0.19674215  0.83726398  0.07420180     0.08200
H1462       H  0.30465020  0.96530785  0.05942660     0.08200
H1463       H  0.31761544  0.93201085  0.04388976     0.08200
H1464       H  0.32819612  0.93242197  0.06937069     0.05000
C1465       C  0.22264785  0.63570563  0.92949828    -0.20800
C1466       C  0.25258159  0.64404472  0.92042009    -0.07400
C1467       C  0.28154109  0.62811859  0.92672054     0.13500
C1468       C  0.27939172  0.60405016  0.94134198    -0.20900
C1469       C  0.24940887  0.59565372  0.95001117    -0.07400
C1470       C  0.22077384  0.61179895  0.94419433     0.13500
C1471       C  0.18821370  0.60350467  0.95342622    -0.24200
H1472       H  0.20042825  0.64779171  0.92502130     0.14800
H1473       H  0.30124396  0.59154190  0.94607698     0.14800
C1474       C  0.31487399  0.63576705  0.91823301    -0.24200
H1475       H  0.16817153  0.61840086  0.94725062     0.05000
H1476       H  0.18911573  0.60805962  0.96942619     0.08200
H1477       H  0.18237748  0.57742477  0.95085148     0.08200
H1478       H  0.32097640  0.66181343  0.92072242     0.08200
H1479       H  0.31537976  0.63018290  0.90234405     0.08200
H1480       H  0.33435391  0.62103732  0.92515756     0.05000
C1481       C  0.22887620  0.88555507  0.92751502    -0.20800
C1482       C  0.25560798  0.88723781  0.91444721    -0.07400
C1483       C  0.28188563  0.90868433  0.91869609     0.13500
C1484       C  0.28043994  0.92793839  0.93566474    -0.20900
C1485       C  0.25336280  0.92673661  0.94838678    -0.07400
C1486       C  0.22746899  0.90496613  0.94442590     0.13500
C1487       C  0.19790983  0.90290153  0.95769832    -0.24200
H1488       H  0.20879280  0.86909565  0.92442741     0.14800
H1489       H  0.30001559  0.94502908  0.93871209     0.14800
C1490       C  0.31072466  0.91290369  0.90501319    -0.24200
H1491       H  0.17948152  0.88535375  0.95212117     0.05000
H1492       H  0.18617712  0.92718197  0.95884981     0.08200
H1493       H  0.20526223  0.89465882  0.97247918     0.08200
H1494       H  0.30212188  0.92014348  0.89027407     0.08200
H1495       H  0.32469959  0.88988691  0.90399381     0.08200
H1496       H  0.32782811  0.93207188  0.91018061     0.05000
C1497       C  0.48196045  0.64486828  0.73000748    -0.20800
C1498       C  0.50283713  0.67164771  0.72575082    -0.07400
C1499       C  0.02479797  0.66823229  0.70945301     0.13500
C1500       C  0.02260979  0.64072282  0.69725836    -0.20900
C1501       C  0.50027900  0.61555695  0.70097712    -0.07400
C1502       C  0.48051364  0.61710294  0.71794497     0.13500
C1503       C  0.45890592  0.58883705  0.72389236    -0.24200
H1504       H  0.46711426  0.64454775  0.74308488     0.14800
H1505       H  0.03865772  0.63878569  0.68459816     0.14800
C1506       C  0.05200631  0.69216362  0.70494533    -0.24200
H1507       H  0.44645110  0.59320806  0.73815675     0.05000
H1508       H  0.47387959  0.56645143  0.72533764     0.08200
H1509       H  0.43972577  0.58481099  0.71277916     0.08200
H1510       H  0.06934386  0.69255630  0.71720841     0.08200
H1511       H  0.04279356  0.71689138  0.70191849     0.08200
H1512       H  0.06638712  0.68491345  0.69179771     0.05000
C1513       C  0.02452199  0.84249262  0.71422691    -0.20800
C1514       C  0.49397783  0.85608447  0.70976127    -0.07400
C1515       C  0.46525931  0.84008700  0.71681816     0.13500
C1516       C  0.46802817  0.80965274  0.72623211    -0.20900
C1517       C  0.49859265  0.79542194  0.72943181    -0.07400
C1518       C  0.02712578  0.81253159  0.72394017     0.13500
C1519       C  0.06044908  0.79864473  0.72765342    -0.24200
H1520       H  0.04672480  0.85479873  0.70952638     0.14800
H1521       H  0.44617836  0.79655057  0.73073516     0.14800
C1522       C  0.43165266  0.85455458  0.71466698    -0.24200
H1523       H  0.08028897  0.81518718  0.72249591     0.05000
H1524       H  0.06291327  0.77525399  0.71969056     0.08200
H1525       H  0.06366770  0.79467692  0.74357724     0.08200
H1526       H  0.42477908  0.85546681  0.69901682     0.08200
H1527       H  0.43118796  0.87943056  0.72104975     0.08200
H1528       H  0.41272361  0.83979899  0.72241960     0.05000
C1529       C  0.05913410  0.75603031  0.79249985    -0.20800
C1530       C  0.06474098  0.74367553  0.77356760    -0.07400
C1531       C  0.09761518  0.73933366  0.76713228     0.13500
C1532       C  0.12331812  0.74449859  0.78022211    -0.20900
C1533       C  0.11753529  0.75618588  0.79911272    -0.07400
C1534       C  0.08518215  0.76278376  0.80522805     0.13500
C1535       C  0.07812647  0.77609566  0.82534602    -0.24200
H1536       H  0.03423954  0.75969907  0.79756993     0.14800
H1537       H  0.14828286  0.74002380  0.77547408     0.14800
C1538       C  0.10701607  0.73090584  0.74642117    -0.24200
H1539       H  0.05149508  0.77941898  0.82792614     0.05000
H1540       H  0.09028197  0.80015422  0.82702712     0.08200
H1541       H  0.08746605  0.75908616  0.83662082     0.08200
H1542       H  0.08635043  0.73295266  0.73632245     0.08200
H1543       H  0.11714181  0.70585945  0.74585043     0.08200
H1544       H  0.12586270  0.74834643  0.74099195     0.05000
C1545       C  0.41147054  0.72669795  0.80548704    -0.20800
C1546       C  0.39148016  0.75350653  0.80109521    -0.07400
C1547       C  0.40205862  0.77589671  0.78653305     0.13500
C1548       C  0.43113235  0.76967800  0.77600999    -0.20900
C1549       C  0.44969086  0.74163632  0.77953912    -0.07400
C1550       C  0.44051282  0.72066283  0.79504455     0.13500
C1551       C  0.46168370  0.69235153  0.80094124    -0.24200
H1552       H  0.40424778  0.71011324  0.81711515     0.14800
H1553       H  0.43866582  0.78607702  0.76439858     0.14800
C1554       C  0.38222054  0.80548007  0.78132603    -0.24200
H1555       H  0.45179751  0.67970467  0.81411878     0.05000
H1556       H  0.48663262  0.70130582  0.80438265     0.08200
H1557       H  0.46323418  0.67416042  0.78900622     0.08200
H1558       H  0.38057286  0.82211598  0.79408142     0.08200
H1559       H  0.35728900  0.79792156  0.77686417     0.08200
H1560       H  0.39347008  0.81937805  0.76900915     0.05000
C1561       C  0.31982899  0.97699214  0.72823104    -0.20800
C1562       C  0.30080237  0.00486747  0.72495789    -0.07400
C1563       C  0.31013583  0.52696967  0.71002957     0.13500
C1564       C  0.33886914  0.52121336  0.69923090    -0.20900
C1565       C  0.35890300  0.99390115  0.70287733    -0.07400
C1566       C  0.34890781  0.97131034  0.71749437     0.13500
C1567       C  0.36932194  0.94197768  0.72242907    -0.24200
H1568       H  0.31246730  0.96012724  0.73965187     0.14800
H1569       H  0.34592261  0.53834102  0.68785541     0.14800
C1570       C  0.28981409  0.55640032  0.70519819    -0.24200
H1571       H  0.35876176  0.92802152  0.73493109     0.05000
H1572       H  0.39419406  0.45001240  0.72650314     0.08200
H1573       H  0.37065477  0.92529101  0.70968804     0.08200
H1574       H  0.29027916  0.57388433  0.71750604     0.08200
H1575       H  0.26434808  0.04859597  0.70223493     0.08200
H1576       H  0.29928855  0.56937147  0.69203203     0.05000
C1577       C  0.18856194  0.99491479  0.70678103    -0.20800
C1578       C  0.18336718  0.00357888  0.72646266    -0.07400
C1579       C  0.15051028  0.50541650  0.73378161     0.13500
C1580       C  0.12434273  0.50057532  0.72095637    -0.20900
C1581       C  0.12980139  0.99268940  0.70123856    -0.07400
C1582       C  0.16211914  0.98960114  0.69407067     0.13500
C1583       C  0.16858386  0.98151725  0.67289942    -0.24200
H1584       H  0.21338068  0.99334221  0.70116885     0.14800
H1585       H  0.09944820  0.50262616  0.72642254     0.14800
C1586       C  0.14171522  0.51135564  0.75496859    -0.24200
H1587       H  0.19517999  0.98010627  0.66960447     0.05000
H1588       H  0.15773341  0.50086647  0.66345277     0.08200
H1589       H  0.15734584  0.95760621  0.66933280     0.08200
H1590       H  0.12827343  0.53470785  0.75631708     0.08200
H1591       H  0.16309195  0.01223297  0.76470405     0.08200
H1592       H  0.12568473  0.49128585  0.76034657     0.05000
C1593       C  0.23353412  0.57038927  0.79679000    -0.20800
C1594       C  0.24189039  0.57250793  0.77668788    -0.07400
C1595       C  0.24853912  0.60422570  0.76894037     0.13500
C1596       C  0.25152062  0.63095791  0.78170884    -0.20900
C1597       C  0.24531911  0.62784595  0.80178045    -0.07400
C1598       C  0.23515652  0.59745249  0.80930054     0.13500
C1599       C  0.22626061  0.59338161  0.83063769    -0.24200
H1600       H  0.22459679  0.54788040  0.80299895     0.14800
H1601       H  0.25760824  0.65479512  0.77580806     0.14800
C1602       C  0.25166788  0.61165185  0.74736939    -0.24200
H1603       H  0.21960088  0.56778850  0.83425308     0.05000
H1604       H  0.20497574  0.60895029  0.83436178     0.08200
H1605       H  0.24733797  0.60047248  0.83984732     0.08200
H1606       H  0.23449886  0.63151192  0.74352542     0.08200
H1607       H  0.24544090  0.59094497  0.73781484     0.08200
H1608       H  0.27698038  0.61985786  0.74394897     0.05000
C1609       C  0.27627132  0.93728965  0.77647041    -0.20800
C1610       C  0.24534426  0.94842032  0.77110104    -0.07400
C1611       C  0.21750729  0.92939333  0.77539762     0.13500
C1612       C  0.22117543  0.89970160  0.78523024    -0.20900
C1613       C  0.25192656  0.88908278  0.79167968    -0.07400
C1614       C  0.28009572  0.90791511  0.78675586     0.13500
C1615       C  0.31413563  0.89834791  0.79273343    -0.24200
H1616       H  0.29741681  0.95250834  0.77339217     0.14800
H1617       H  0.19950531  0.88549259  0.78872394     0.14800
C1618       C  0.18375114  0.94125741  0.77069556    -0.24200
H1619       H  0.33287922  0.91564324  0.78700053     0.05000
H1620       H  0.32009821  0.87385329  0.78684847     0.08200
H1621       H  0.31604214  0.89841596  0.80892465     0.08200
H1622       H  0.18185461  0.94606428  0.75476459     0.08200
H1623       H  0.17890564  0.96390998  0.77902897     0.08200
H1624       H  0.16461640  0.92317978  0.77483794     0.05000
C1625       C  0.12216789  0.79880848  0.07350988    -0.20800
C1626       C  0.12631988  0.76821161  0.08243907    -0.07400
C1627       C  0.10912901  0.74092509  0.07483006     0.13500
C1628       C  0.08859769  0.74517170  0.05868586    -0.20900
C1629       C  0.08395830  0.77592436  0.05031014    -0.07400
C1630       C  0.10099823  0.80308776  0.05772770     0.13500
C1631       C  0.09651262  0.83706410  0.04980969    -0.24200
H1632       H  0.13481980  0.81992857  0.07921159     0.14800
H1633       H  0.07493720  0.72461669  0.05299994     0.14800
C1634       C  0.11063694  0.70760811  0.08404489    -0.24200
H1635       H  0.12038139  0.84669553  0.04448750     0.05000
H1636       H  0.08715894  0.85313797  0.06164728     0.08200
H1637       H  0.07909598  0.83815653  0.03750197     0.08200
H1638       H  0.10207522  0.70885048  0.09948946     0.08200
H1639       H  0.13596505  0.69839661  0.08341498     0.08200
H1640       H  0.09494884  0.68966400  0.07634921     0.05000
C1641       C  0.39744879  0.80498459  0.05813977    -0.20800
C1642       C  0.41483182  0.77707300  0.05268621    -0.07400
C1643       C  0.40904711  0.74745676  0.06269749     0.13500
C1644       C  0.38564304  0.74642449  0.07779621    -0.20900
C1645       C  0.36829066  0.77438502  0.08354486    -0.07400
C1646       C  0.37447921  0.80424246  0.07355341     0.13500
C1647       C  0.35717047  0.83549277  0.07878932    -0.24200
H1648       H  0.40234571  0.82762546  0.05043718     0.14800
H1649       H  0.38141405  0.72353179  0.08535771     0.14800
C1650       C  0.42733603  0.71658363  0.05796436    -0.24200
H1651       H  0.36423850  0.85580242  0.06883006     0.05000
H1652       H  0.36372268  0.84307272  0.09384006     0.08200
H1653       H  0.33030474  0.83210279  0.07769415     0.08200
H1654       H  0.44108247  0.70855912  0.07104342     0.08200
H1655       H  0.44499605  0.71947680  0.04568408     0.08200
H1656       H  0.40968839  0.69717760  0.05389509     0.05000
C1657       C  0.08422433  0.75352339  0.93821565    -0.20800
C1658       C  0.08198634  0.78326500  0.94810228    -0.07400
C1659       C  0.10306183  0.80920150  0.94281336     0.13500
C1660       C  0.12569865  0.80471996  0.92750158    -0.20900
C1661       C  0.12809030  0.77484358  0.91750383    -0.07400
C1662       C  0.10696754  0.74881805  0.92303794     0.13500
C1663       C  0.10736721  0.71619708  0.91290373    -0.24200
H1664       H  0.06791156  0.73381284  0.94248380     0.14800
H1665       H  0.14175990  0.82475860  0.92345405     0.14800
C1666       C  0.10222378  0.84179606  0.95293574    -0.24200
H1667       H  0.08811692  0.69956129  0.91873368     0.05000
H1668       H  0.13123143  0.70406838  0.91519955     0.08200
H1669       H  0.10287136  0.71947157  0.89702309     0.08200
H1670       H  0.12638662  0.84678493  0.95959851     0.08200
H1671       H  0.08338311  0.84305892  0.96467166     0.08200
H1672       H  0.09692423  0.86119664  0.94208844     0.05000
C1673       C  0.38564839  0.74585340  0.92504101    -0.20800
C1674       C  0.36943440  0.77389602  0.91841606    -0.07400
C1675       C  0.37465916  0.80387733  0.92840085     0.13500
C1676       C  0.39640347  0.80493215  0.94418383    -0.20900
C1677       C  0.41344343  0.77719146  0.95007823    -0.07400
C1678       C  0.40784099  0.74724680  0.94056904     0.13500
C1679       C  0.42575829  0.71691479  0.94661667    -0.24200
H1680       H  0.38174412  0.72281908  0.91767369     0.14800
H1681       H  0.40095848  0.82776839  0.95166069     0.14800
C1682       C  0.35778213  0.83502645  0.92269412    -0.24200
H1683       H  0.41845124  0.69548498  0.93773425     0.05000
H1684       H  0.42031301  0.71138181  0.96222040     0.08200
H1685       H  0.45249741  0.72062065  0.94469277     0.08200
H1686       H  0.33085766  0.83148605  0.92309789     0.08200
H1687       H  0.36588754  0.84266349  0.90783620     0.08200
H1688       H  0.36369337  0.85535831  0.93280015     0.05000
C1689       C  0.37513200  0.00080591  0.27846108    -0.20800
C1690       C  0.37025540  0.99161990  0.29796866    -0.07400
C1691       C  0.33820519  0.98611680  0.30510496     0.13500
C1692       C  0.31152157  0.99089084  0.29261333    -0.20900
C1693       C  0.31622222  0.00125611  0.27322384    -0.07400
C1694       C  0.34865507  0.00507768  0.26583777     0.13500
C1695       C  0.35660087  0.01297221  0.24473470    -0.24200
H1696       H  0.39984900  0.00462066  0.27300701     0.14800
H1697       H  0.28692196  0.48805016  0.29827229     0.14800
C1698       C  0.33212769  0.97649733  0.32610194    -0.24200
H1699       H  0.37354273  0.99429096  0.23876886     0.05000
H1700       H  0.36871587  0.53739256  0.24381140     0.08200
H1701       H  0.33492706  0.01300531  0.23516965     0.08200
H1702       H  0.34225516  0.49565248  0.33596264     0.08200
H1703       H  0.34423188  0.95290244  0.32918054     0.08200
H1704       H  0.30573486  0.47386306  0.32939484     0.05000
C1705       C  0.14703014  0.97674637  0.28499097    -0.20800
C1706       C  0.14216888  0.99646026  0.30152509    -0.07400
C1707       C  0.16750973  0.51826472  0.30712642     0.13500
C1708       C  0.19587319  0.52108892  0.29543863    -0.20900
C1709       C  0.19992591  0.00249661  0.27840793    -0.07400
C1710       C  0.17544292  0.97970316  0.27329667     0.13500
C1711       C  0.17838022  0.95972427  0.25496434    -0.24200
H1712       H  0.12794338  0.95981738  0.28078573     0.14800
H1713       H  0.21467134  0.53856106  0.29931995     0.14800
C1714       C  0.16526645  0.53813196  0.32562921    -0.24200
H1715       H  0.15686632  0.94354351  0.25290432     0.05000
H1716       H  0.20044316  0.94415727  0.25571309     0.08200
H1717       H  0.18011352  0.97626376  0.24214999     0.08200
H1718       H  0.16039529  0.02184425  0.33833204     0.08200
H1719       H  0.14548899  0.55641599  0.32444827     0.08200
H1720       H  0.18832028  0.55163099  0.32848006     0.05000
C1721       C  0.22227212  0.61027134  0.20399702    -0.20800
C1722       C  0.24909639  0.63139292  0.20226545    -0.07400
C1723       C  0.27707468  0.62553158  0.21370227     0.13500
C1724       C  0.27784464  0.59816512  0.22595334    -0.20900
C1725       C  0.25131973  0.57617088  0.22759199    -0.07400
C1726       C  0.22274873  0.58290952  0.21638133     0.13500
C1727       C  0.19228573  0.56177656  0.21694041    -0.24200
H1728       H  0.20075973  0.61494216  0.19530385     0.14800
H1729       H  0.30018063  0.59418507  0.23368291     0.14800
C1730       C  0.30637395  0.64810105  0.21341588    -0.24200
H1731       H  0.17401626  0.56986599  0.20605522     0.05000
H1732       H  0.17992295  0.56333043  0.23136457     0.08200
H1733       H  0.19791464  0.53608540  0.21344204     0.08200
H1734       H  0.29853131  0.67340907  0.21669037     0.08200
H1735       H  0.31883204  0.64716947  0.19894040     0.08200
H1736       H  0.32477087  0.64118964  0.22451627     0.05000
C1737       C  0.22523549  0.94890413  0.21374846    -0.20800
C1738       C  0.25160208  0.95356468  0.22642070    -0.07400
C1739       C  0.27523291  0.92872585  0.22822701     0.13500
C1740       C  0.27132696  0.89962462  0.21766160    -0.20900
C1741       C  0.24454662  0.89465290  0.20526223    -0.07400
C1742       C  0.22111554  0.91980783  0.20330672     0.13500
C1743       C  0.19236393  0.91708124  0.18975193    -0.24200
H1744       H  0.20769939  0.96837993  0.21193878     0.14800
H1745       H  0.28965175  0.88072680  0.21886266     0.14800
C1746       C  0.30567189  0.93339918  0.24015585    -0.24200
H1747       H  0.17750527  0.93968583  0.18963701     0.05000
H1748       H  0.17605479  0.89689605  0.19459323     0.08200
H1749       H  0.20109249  0.91272757  0.17454697     0.08200
H1750       H  0.29940551  0.93598582  0.25586613     0.08200
H1751       H  0.31898239  0.95537557  0.23495792     0.08200
H1752       H  0.32250582  0.91233777  0.23876906     0.05000
C1753       C  0.75439843  0.04477113  0.23991173     0.86000
C1754       C  0.78553579  0.03996038  0.25222050    -0.54300
C1755       C  0.78709914  0.51085112  0.26173421     0.08900
C1756       C  0.75635082  0.48940167  0.25904903     0.19800
C1757       C  0.75323807  0.01426922  0.22686003    -0.55000
C1758       C  0.75426325  0.48539455  0.23673029     0.09000
C1759       C  0.72690726  0.04043181  0.25509874    -0.54500
C1760       C  0.72712737  0.51138382  0.26467458     0.09600
H1761       H  0.80506493  0.05746983  0.25395899     0.14100
H1762       H  0.75657270  0.46607309  0.26726093    -0.00200
H1763       H  0.75215276  0.51546860  0.21099019     0.14400
H1764       H  0.70878617  0.05896860  0.25823931     0.14200
N1765       N  0.94808732  0.28272710  0.00095667    -0.37100
N1766       N  0.49827348  0.28364968  0.97034350    -0.57700
N1767       N  0.54925216  0.28537184  0.99980120    -0.37100
N1768       N  0.49907703  0.28064000  0.03037116    -0.57700
C1769       C  0.92919714  0.27694045  0.98517391     0.26500
C1770       C  0.92949814  0.27722710  0.01710862     0.26500
C1771       C  0.56757377  0.28056627  0.98349199     0.26500
C1772       C  0.56796667  0.27747116  0.01530869     0.26500
C1773       C  0.97147826  0.28631415  0.95903457     0.35100
C1774       C  0.52435161  0.28938932  0.95852711     0.35100
C1775       C  0.97284623  0.28366106  0.04242199     0.35100
C1776       C  0.52579817  0.28324389  0.04174526     0.35100
C1777       C  0.89789721  0.26852868  0.99138949    -0.22400
C1778       C  0.89806071  0.26880227  0.01152701    -0.22400
C1779       C  0.59859539  0.27037475  0.98872241    -0.22400
C1780       C  0.59883527  0.26842031  0.00880724    -0.22400
C1781       C  0.98062275  0.29362551  0.93992886    -0.23500
C1782       C  0.51408261  0.29569033  0.93962749    -0.23500
C1783       C  0.98299632  0.28791859  0.06155442    -0.23500
C1784       C  0.51652747  0.28763972  0.06112899    -0.23500
C1785       C  0.93896280  0.28022790  0.96531908    -0.18800
C1786       C  0.93985520  0.28010951  0.03675644    -0.18800
C1787       C  0.55843133  0.27938473  0.03521091    -0.18800
C1788       C  0.55735910  0.28573067  0.96402090    -0.18800
H1789       H  0.87703022  0.26288123  0.98236134     0.14100
H1790       H  0.87738176  0.26326023  0.02097254     0.14100
H1791       H  0.61894026  0.26476328  0.97907537     0.14100
H1792       H  0.61940815  0.26109550  0.01761401     0.14100
H1793       H  0.96485745  0.29673641  0.92743599     0.12400
H1794       H  0.52918030  0.30053929  0.92684960     0.12400
H1795       H  0.96784822  0.29042070  0.07453438     0.12400
H1796       H  0.53224226  0.28992525  0.07371474     0.12400
H1797       H  0.97144716  0.29258935  0.00075131     0.25600
H1798       H  0.52644434  0.29634301  0.00037770     0.25600
C1799       C  0.74264975  0.04129622  0.76389322     0.86000
C1800       C  0.71319290  0.03914955  0.75022194    -0.54300
C1801       C  0.71209490  0.51198086  0.73882745     0.08900
C1802       C  0.74231726  0.48984609  0.74121352     0.19800
C1803       C  0.74277562  0.00830112  0.77493727    -0.55000
C1804       C  0.74248221  0.48180606  0.76312073     0.09000
C1805       C  0.77287542  0.03849315  0.75045932    -0.54500
C1806       C  0.77250389  0.51219305  0.73828742     0.09600
H1807       H  0.69397271  0.05734363  0.75013556     0.14100
H1808       H  0.74230223  0.46790286  0.73171003    -0.00200
H1809       H  0.74504588  0.50554517  0.79063844     0.14400
H1810       H  0.79320670  0.05555913  0.75092101     0.14200
C1811       C  0.00272185  0.20262221  0.73875026     0.86000
C1812       C  0.97526130  0.20541112  0.75439095    -0.54300
C1813       C  0.97669571  0.23296474  0.76559050     0.08900
C1814       C  0.50510314  0.25592966  0.75995911     0.19800
C1815       C  0.99880193  0.23455637  0.72702964    -0.55000
C1816       C  0.00058904  0.26225360  0.73803506     0.09000
C1817       C  0.53433613  0.20677761  0.75051350    -0.54500
C1818       C  0.53617913  0.23487421  0.76123781     0.09600
H1819       H  0.95454156  0.18908813  0.75572299     0.14100
H1820       H  0.50598952  0.27865742  0.76875036    -0.00200
H1821       H  0.49431250  0.23531576  0.71139719     0.14400
H1822       H  0.55349338  0.18854564  0.75060515     0.14200
N1823       N  0.74780101  0.45934776  0.00002694    -0.37100
N1824       N  0.75004636  0.01047306  0.97037388    -0.57700
N1825       N  0.74590661  0.06000425  0.00077181    -0.37100
N1826       N  0.74722390  0.00923177  0.03047805    -0.57700
C1827       C  0.75519477  0.44146833  0.98395625     0.26500
C1828       C  0.75407641  0.44072941  0.01591145     0.26500
C1829       C  0.75269057  0.07889669  0.98499835     0.26500
C1830       C  0.75122215  0.07832241  0.01688334     0.26500
C1831       C  0.74546413  0.48423526  0.95869790     0.35100
C1832       C  0.74480677  0.03702624  0.95908414     0.35100
C1833       C  0.74325679  0.48241648  0.04180157     0.35100
C1834       C  0.74213313  0.03529691  0.04221435     0.35100
C1835       C  0.76590216  0.41091198  0.98969232    -0.22400
C1836       C  0.76508555  0.41040689  0.00986316    -0.22400
C1837       C  0.76189462  0.10975962  0.99114510    -0.22400
C1838       C  0.76091657  0.10941735  0.01126752    -0.22400
C1839       C  0.73766872  0.49424600  0.93991726    -0.23500
C1840       C  0.73733026  0.02764231  0.94017870    -0.23500
C1841       C  0.73578706  0.49156120  0.06086176    -0.23500
C1842       C  0.73517168  0.02505317  0.06113401    -0.23500
C1843       C  0.75085120  0.45146394  0.96429308    -0.18800
C1844       C  0.74887801  0.44992187  0.03567383    -0.18800
C1845       C  0.74614594  0.06822374  0.03648712    -0.18800
C1846       C  0.74877771  0.06966575  0.96522946    -0.18800
H1847       H  0.77321647  0.39093884  0.98031399     0.14100
H1848       H  0.77177794  0.39000568  0.01902999     0.14100
H1849       H  0.76834475  0.13050074  0.98208039     0.14100
H1850       H  0.76657155  0.12983383  0.02067392     0.14100
H1851       H  0.73312446  0.47906917  0.92728092     0.12400
H1852       H  0.73235066  0.04325249  0.92778759     0.12400
H1853       H  0.73184377  0.47581276  0.07338958     0.12400
H1854       H  0.73070111  0.04008633  0.07387682     0.12400
H1855       H  0.73590156  0.48163066  0.00011587     0.25600
H1856       H  0.73484160  0.03721565  0.00051423     0.25600
N1857       N  0.73746803  0.33721934  0.87353507    -0.06600
N1858       N  0.72704021  0.35562535  0.88815158    -0.58800
N1859       N  0.76869765  0.33044969  0.82810219    -0.06300
N1860       N  0.77986006  0.34869770  0.81358476    -0.60900
N1861       N  0.73654606  0.33084623  0.82855530    -0.05900
N1862       N  0.72539312  0.34925528  0.81429985    -0.58700
N1863       N  0.76958293  0.33688368  0.87294008    -0.05600
N1864       N  0.78161868  0.35509690  0.88708414    -0.61200
C1865       C  0.75486765  0.36685889  0.89642832     0.95500
C1866       C  0.75262441  0.36037227  0.80497934     0.95300
N1867       N  0.82292987  0.24417727  0.83225532    -0.06800
N1868       N  0.84522279  0.23086301  0.82075090    -0.59300
N1869       N  0.82224723  0.28254399  0.87533836    -0.04900
N1870       N  0.83847524  0.29612296  0.88979030    -0.60600
N1871       N  0.82194420  0.25064909  0.87717810    -0.06900
N1872       N  0.83814272  0.24198288  0.89301266    -0.59600
N1873       N  0.82387288  0.27612133  0.83062892    -0.04600
N1874       N  0.84694946  0.28499499  0.81798092    -0.60700
Mn1875     Mn  0.79671873  0.30718832  0.85153073     1.18400
C1876       C  0.85992489  0.25646093  0.81171871     0.97600
C1877       C  0.84824921  0.27068808  0.90082620     0.98300
N1878       N  0.67973271  0.27801239  0.83236972    -0.06900
N1879       N  0.65848729  0.28731515  0.81900321    -0.63200
N1880       N  0.68190927  0.25250184  0.87869778    -0.05700
N1881       N  0.66346383  0.24355178  0.89369452    -0.63900
N1882       N  0.68217413  0.28441452  0.87700526    -0.06400
N1883       N  0.66395994  0.29778849  0.89086231    -0.63400
N1884       N  0.67969135  0.24604216  0.83402005    -0.05300
N1885       N  0.65875059  0.23295680  0.82169697    -0.64100
Mn1886     Mn  0.70835841  0.30842948  0.85273559     1.10700
C1887       C  0.64595702  0.25887979  0.81231847     0.98800
C1888       C  0.65233749  0.27196129  0.90118309     0.98900
N1889       N  0.76743144  0.19668563  0.87984970    -0.06400
N1890       N  0.77915024  0.17912874  0.89433129    -0.61800
N1891       N  0.73359951  0.19117005  0.83574287    -0.05700
N1892       N  0.72098881  0.17028196  0.82320392    -0.58500
N1893       N  0.76578918  0.19052485  0.83491610    -0.07000
N1894       N  0.77562179  0.16902000  0.82169967    -0.61300
N1895       N  0.73533687  0.19703399  0.88058288    -0.06000
N1896       N  0.72466574  0.17952985  0.89561884    -0.58500
Mn1897     Mn  0.79517259  0.21979753  0.85593390     1.20200
Mn1898     Mn  0.70704389  0.22108389  0.85731216     1.10100
Cl1899     Cl  0.75181751  0.26406523  0.85418241    -0.86500
C1900       C  0.75234347  0.16848135  0.90416690     0.95900
C1901       C  0.74737044  0.15691257  0.81435829     0.95600
N1902       N  0.72836940  0.33138416  0.17167227    -0.06600
N1903       N  0.71698606  0.35193872  0.18490707    -0.58800
N1904       N  0.76140610  0.33563479  0.12690537    -0.06300
N1905       N  0.77303730  0.35269934  0.11196443    -0.60900
N1906       N  0.72927133  0.33514075  0.12664000    -0.05900
N1907       N  0.71847921  0.35189317  0.11151115    -0.58700
N1908       N  0.76056756  0.33120343  0.17188613    -0.05600
N1909       N  0.77150091  0.35159353  0.18526374    -0.61200
C1910       C  0.74410047  0.36441251  0.19335513     0.95500
C1911       C  0.74601443  0.36262515  0.10237282     0.95300
N1912       N  0.81558685  0.25111955  0.12267180    -0.06800
N1913       N  0.83364286  0.24264278  0.10738109    -0.59300
N1914       N  0.81683379  0.27669367  0.16948474    -0.04900
N1915       N  0.83773345  0.28560598  0.18319352    -0.60600
N1916       N  0.81687578  0.24477252  0.16756163    -0.06900
N1917       N  0.83742632  0.23138423  0.17999213    -0.59600
N1918       N  0.81559750  0.28296186  0.12463979    -0.04600
N1919       N  0.83338035  0.29675342  0.11072409    -0.60700
Mn1920     Mn  0.78919673  0.30731623  0.14850488     1.18400
C1921       C  0.84445917  0.27146408  0.09994470     0.97600
C1922       C  0.84994577  0.25700431  0.18984962     0.98300
N1923       N  0.67498549  0.28076216  0.12465371    -0.06900
N1924       N  0.65810509  0.29304946  0.11002819    -0.63200
N1925       N  0.67344277  0.24440399  0.16847266    -0.05700
N1926       N  0.65109084  0.23149308  0.18020698    -0.63900
N1927       N  0.67270526  0.27641494  0.16957085    -0.06400
N1928       N  0.64971173  0.28571025  0.18210768    -0.63400
N1929       N  0.67508148  0.24877489  0.12369831    -0.05300
N1930       N  0.65833022  0.23870816  0.10842986    -0.64100
Mn1931     Mn  0.70067361  0.30669641  0.14828485     1.10700
C1932       C  0.64771668  0.26652592  0.10000064     0.98800
C1933       C  0.63652616  0.25740472  0.18883412     0.98900
N1934       N  0.76203446  0.19129241  0.16575761    -0.06400
N1935       N  0.77422273  0.17135562  0.17887043    -0.61800
N1936       N  0.72892581  0.19519714  0.12174555    -0.05700
N1937       N  0.71717160  0.17700198  0.10753563    -0.58500
N1938       N  0.76103107  0.19572387  0.12101409    -0.07000
N1939       N  0.77167257  0.17767628  0.10628763    -0.61300
N1940       N  0.72988656  0.19080659  0.16652399    -0.06000
N1941       N  0.71965507  0.17019459  0.18016892    -0.58500
Mn1942     Mn  0.78949302  0.22009265  0.14411774     1.20200
Mn1943     Mn  0.70123911  0.21914874  0.14526190     1.10100
Cl1944     Cl  0.74513099  0.26331554  0.14671790    -0.86500
C1945       C  0.74769489  0.15851726  0.18793606     0.95900
C1946       C  0.74399825  0.16627597  0.09784112     0.95600
N1947       N  0.98116733  0.05558553  0.66565683    -0.06600
N1948       N  0.97116544  0.07555919  0.67962877    -0.58800
N1949       N  0.51087087  0.04829655  0.61958867    -0.06300
N1950       N  0.52155003  0.06509316  0.60429131    -0.60900
N1951       N  0.97878178  0.04903550  0.62049584    -0.05900
N1952       N  0.96707676  0.06625078  0.60578585    -0.58700
N1953       N  0.51330832  0.05559467  0.66452596    -0.05600
N1954       N  0.52575076  0.07567728  0.67760698    -0.61200
C1955       C  0.99924234  0.08770389  0.68711578     0.95500
C1956       C  0.99398616  0.07605779  0.59563775     0.95300
N1957       N  0.56404492  0.46103550  0.62441370    -0.06800
N1958       N  0.58113107  0.44655812  0.61048290    -0.59300
N1959       N  0.56736910  0.00126308  0.66645028    -0.04900
N1960       N  0.58870658  0.01496828  0.67828988    -0.60600
N1961       N  0.56670877  0.46958795  0.66899753    -0.06900
N1962       N  0.58800860  0.46107059  0.68251831    -0.59600
N1963       N  0.56436057  0.99273985  0.62183002    -0.04600
N1964       N  0.58172027  0.00048589  0.60610227    -0.60700
Mn1965     Mn  0.53962271  0.02516765  0.64297578     1.18400
C1966       C  0.59193331  0.47137531  0.59909042     0.97600
C1967       C  0.60099763  0.48981823  0.68839402     0.98300
N1968       N  0.92422064  0.99558227  0.62459104    -0.06900
N1969       N  0.90657384  0.00490096  0.60955532    -0.63200
N1970       N  0.92338183  0.47045441  0.67105435    -0.05700
N1971       N  0.90163051  0.46193233  0.68459996    -0.63900
N1972       N  0.92463857  0.00235860  0.66928810    -0.06400
N1973       N  0.90372671  0.01598643  0.68157229    -0.63400
N1974       N  0.92350672  0.46357811  0.62624966    -0.05300
N1975       N  0.90544248  0.45054361  0.61235324    -0.64100
Mn1976     Mn  0.95160275  0.02636797  0.64509164     1.10700
C1977       C  0.89476808  0.47657625  0.60203419     0.98800
C1978       C  0.88951074  0.49065026  0.69119815     0.98900
N1979       N  0.50995138  0.41568797  0.67347222    -0.06400
N1980       N  0.52094849  0.39714568  0.68775157    -0.61800
N1981       N  0.97726372  0.40939757  0.62844940    -0.05700
N1982       N  0.96590258  0.39244904  0.61352679    -0.58500
N1983       N  0.50938364  0.40887371  0.62838398    -0.07000
N1984       N  0.52043557  0.39163007  0.61344386    -0.61300
N1985       N  0.97779952  0.41557658  0.67360795    -0.06000
N1986       N  0.96653293  0.39694121  0.68796087    -0.58500
Mn1987     Mn  0.53814486  0.43803528  0.64910482     1.20200
Mn1988     Mn  0.94981229  0.43893583  0.64998110     1.10100
Cl1989     Cl  0.99470563  0.48217156  0.64696294    -0.86500
C1990       C  0.99366507  0.38555436  0.69685509     0.95900
C1991       C  0.99309934  0.38144206  0.60422512     0.95600
N1992       N  0.57470796  0.47412541  0.33158901    -0.06600
N1993       N  0.59756992  0.46529732  0.31881544    -0.58800
N1994       N  0.57178250  0.00023701  0.37801739    -0.06300
N1995       N  0.58852050  0.00924986  0.39355220    -0.60900
N1996       N  0.57208037  0.46826703  0.37633730    -0.05900
N1997       N  0.58880313  0.45499277  0.39064627    -0.58700
N1998       N  0.57388410  0.00610338  0.33313514    -0.05600
N1999       N  0.59604693  0.01946213  0.32145516    -0.61200
C2000       C  0.61075160  0.49390313  0.31255278     0.95500
C2001       C  0.59901738  0.48071642  0.40133834     0.95300
N2002       N  0.98511521  0.05398411  0.37981077    -0.06800
N2003       N  0.97361686  0.07186113  0.39434903    -0.59300
N2004       N  0.51768542  0.05959623  0.33509328    -0.04900
N2005       N  0.52863253  0.08155387  0.32244802    -0.60600
N2006       N  0.98550514  0.05873742  0.33504322    -0.06900
N2007       N  0.97397262  0.07990381  0.32230535    -0.59600
N2008       N  0.51721959  0.05432282  0.37978795    -0.04600
N2009       N  0.52814926  0.07240555  0.39429401    -0.60700
Mn2010     Mn  0.54577537  0.03069224  0.35648558     1.18400
C2011       C  0.00070718  0.08308741  0.40341823     0.97600
C2012       C  0.00111874  0.09360890  0.31437558     0.98300
N2013       N  0.51884683  0.41402152  0.37434619    -0.06900
N2014       N  0.53017637  0.39691737  0.38921160    -0.63200
N2015       N  0.98744198  0.41861121  0.32927036    -0.05700
N2016       N  0.97707326  0.40057084  0.31456383    -0.63900
N2017       N  0.51959022  0.41956603  0.32920484    -0.06400
N2018       N  0.53154859  0.40228492  0.31456553    -0.63400
N2019       N  0.98670239  0.41375262  0.37458311    -0.05300
N2020       N  0.97562174  0.39648969  0.38959070    -0.64100
Mn2021     Mn  0.54689295  0.44323854  0.35267845     1.10700
C2022       C  0.00295552  0.38616345  0.39871234     0.98800
C2023       C  0.00487114  0.39045405  0.30543785     0.98900
N2024       N  0.93116809  0.00362213  0.33316450    -0.06400
N2025       N  0.91106676  0.01618082  0.32019754    -0.61800
N2026       N  0.93131335  0.46685136  0.37692481    -0.05700
N2027       N  0.91299678  0.45424891  0.39111813    -0.58500
N2028       N  0.93129118  0.99884987  0.37808393    -0.07000
N2029       N  0.91308302  0.00854645  0.39300182    -0.61300
N2030       N  0.93115337  0.47164063  0.33194597    -0.06000
N2031       N  0.91080129  0.46182646  0.31822861    -0.58500
Mn2032     Mn  0.95763614  0.02936296  0.35650005     1.20200
Mn2033     Mn  0.95843360  0.44180190  0.35308687     1.10100
Cl2034     Cl  0.00218450  0.48628965  0.35454040    -0.86500
C2035       C  0.89896700  0.48994389  0.31079423     0.95900
C2036       C  0.90159954  0.48059338  0.40102701     0.95600
N2037       N  0.00026975  0.18800380  0.50061189    -0.37100
N2038       N  0.99804460  0.23699578  0.53081753    -0.57700
N2039       N  0.99968795  0.28837843  0.50090527    -0.37100
N2040       N  0.00523494  0.23905414  0.47072873    -0.57700
C2041       C  0.00501611  0.16903693  0.51656234     0.26500
C2042       C  0.00829564  0.17007558  0.48471451     0.26500
C2043       C  0.00474831  0.30620017  0.51726052     0.26500
C2044       C  0.00803286  0.30725524  0.48533376     0.26500
C2045       C  0.99253082  0.21037424  0.54211092     0.35100
C2046       C  0.99219379  0.26319213  0.54225449     0.35100
C2047       C  0.00119869  0.21279113  0.45906252     0.35100
C2048       C  0.00146164  0.26558198  0.45920278     0.35100
C2049       C  0.01599504  0.13862281  0.51070032    -0.22400
C2050       C  0.01798707  0.13924994  0.49058913    -0.22400
C2051       C  0.01608046  0.33693262  0.51200788    -0.22400
C2052       C  0.01813751  0.33759343  0.49185320    -0.22400
C2053       C  0.98342203  0.21968270  0.56084689    -0.23500
C2054       C  0.98318895  0.25311763  0.56094822    -0.23500
C2055       C  0.99534043  0.22267352  0.44000777    -0.23500
C2056       C  0.99552427  0.25609942  0.44009324    -0.23500
C2057       C  0.99796328  0.17784590  0.53615811    -0.18800
C2058       C  0.00481553  0.18000871  0.46502947    -0.18800
C2059       C  0.00529423  0.29824590  0.46540651    -0.18800
C2060       C  0.99786110  0.29600026  0.53670707    -0.18800
H2061       H  0.02163109  0.11798162  0.51993554     0.14100
H2062       H  0.02541133  0.11916249  0.48133245     0.14100
H2063       H  0.02211877  0.35687488  0.52169177     0.14100
H2064       H  0.02610434  0.35808480  0.48300388     0.14100
H2065       H  0.97812454  0.20403235  0.57324855     0.12400
H2066       H  0.97772275  0.26827283  0.57350165     0.12400
H2067       H  0.99170667  0.20739654  0.42730571     0.12400
H2068       H  0.99197110  0.27162682  0.42747955     0.12400
H2069       H  0.98849693  0.21032328  0.50035700     0.25600
H2070       H  0.98787011  0.26599181  0.50035645     0.25600
N2071       N  0.69752526  0.45982409  0.50103480    -0.37100
N2072       N  0.74767322  0.46155536  0.53103034    -0.57700
N2073       N  0.79866018  0.46352071  0.50090685    -0.37100
N2074       N  0.74854897  0.46510877  0.47094056    -0.57700
C2075       C  0.67850442  0.46447956  0.51709719     0.26500
C2076       C  0.67877744  0.46534241  0.48518184     0.26500
C2077       C  0.81698751  0.46847405  0.51701464     0.24500
C2078       C  0.81750086  0.47087175  0.48511382     0.26500
C2079       C  0.72114455  0.45687985  0.54263327     0.35100
C2080       C  0.77404114  0.45754374  0.54251826     0.35100
C2081       C  0.72230785  0.46200043  0.45919241     0.35100
C2082       C  0.77528220  0.46426835  0.45914194     0.35100
C2083       C  0.64698615  0.47201939  0.51136741    -0.22400
C2084       C  0.64710246  0.47237032  0.49125104    -0.22400
C2085       C  0.84814271  0.47838405  0.51137767    -0.22400
C2086       C  0.84847074  0.47987026  0.49125150    -0.22400
C2087       C  0.73067979  0.44999028  0.56159892    -0.23500
C2088       C  0.76418366  0.45033134  0.56152173    -0.23500
C2089       C  0.73247611  0.45963279  0.43982092    -0.23500
C2090       C  0.76594370  0.46088950  0.43980551    -0.23500
C2091       C  0.68842764  0.46123897  0.53679312    -0.18800
C2092       C  0.68921164  0.46377847  0.46537459    -0.18800
C2093       C  0.80798822  0.46848836  0.46528501    -0.18800
C2094       C  0.80679576  0.46315919  0.53662503    -0.18800
H2095       H  0.62601016  0.47674996  0.52069828     0.14100
H2096       H  0.62619694  0.47745234  0.48216584     0.14100
H2097       H  0.86860792  0.48380894  0.52077477     0.14100
H2098       H  0.86922037  0.48670420  0.48217432     0.14100
H2099       H  0.71511067  0.44567282  0.57424231     0.12400
H2100       H  0.77952023  0.44637491  0.57412192     0.12400
H2101       H  0.71738476  0.45767675  0.42694969     0.12400
H2102       H  0.78157753  0.45999874  0.42695147     0.12400
H2103       H  0.72111704  0.45076806  0.50083982     0.25600
H2104       H  0.77577855  0.45265761  0.50065536     0.25600
C2105       C  0.99474307  0.21070852  0.26517827     0.86000
C2106       C  0.52223791  0.21171447  0.24978218    -0.54300
C2107       C  0.52080101  0.23730509  0.23706022     0.08900
C2108       C  0.99199113  0.26052003  0.24112012     0.19800
C2109       C  0.99724461  0.24447977  0.27523668    -0.55000
C2110       C  0.99590243  0.27032421  0.26265084     0.09000
C2111       C  0.96268406  0.21297212  0.25364199    -0.54500
C2112       C  0.96103415  0.23880441  0.24104194     0.09600
H2113       H  0.54217370  0.19430756  0.24964879     0.14100
H2114       H  0.99102539  0.28167181  0.23098140    -0.00200
H2115       H  0.99957392  0.24877398  0.29076051     0.14400
H2116       H  0.94299742  0.19529648  0.25521097     0.14200
C2117       C  0.97590694  0.35446866  0.28224764    -0.20800
C2118       C  0.00542852  0.36281615  0.29131464    -0.07400
C2119       C  0.53331547  0.34296895  0.28784713     0.13500
C2120       C  0.52972090  0.31385675  0.27723701    -0.20900
C2121       C  0.99940445  0.30432101  0.26970451    -0.07400
C2122       C  0.97251262  0.32563764  0.27149653     0.13500
C2123       C  0.93939659  0.31832271  0.26317727    -0.24200
H2124       H  0.95471194  0.36996966  0.28418218     0.14800
H2125       H  0.55040813  0.29762188  0.27551162     0.14800
C2126       C  0.56665152  0.35117111  0.29574724    -0.24200
H2127       H  0.93216831  0.33829765  0.25315035     0.05000
H2128       H  0.92108579  0.31638608  0.27522485     0.08200
H2129       H  0.93887849  0.29550774  0.25479752     0.08200
H2130       H  0.56603789  0.35093945  0.31198627     0.08200
H2131       H  0.57458818  0.37546843  0.29028353     0.08200
H2132       H  0.58539056  0.33324640  0.29099781     0.05000
C2133       C  0.99351843  0.12044298  0.28239823    -0.20800
C2134       C  0.00030985  0.12334747  0.30227629    -0.07400
C2135       C  0.50562198  0.15439400  0.31032722     0.13500
C2136       C  0.50386356  0.18205452  0.29824740    -0.20900
C2137       C  0.99674199  0.17979248  0.27805628    -0.07400
C2138       C  0.99232890  0.14783531  0.27007203     0.13500
C2139       C  0.98656447  0.14066052  0.24867962    -0.24200
H2140       H  0.98960311  0.09634555  0.27631502     0.14800
H2141       H  0.50871586  0.20514575  0.30502890     0.14800
C2142       C  0.51265216  0.15840076  0.33182549    -0.24200
H2143       H  0.00569851  0.12370512  0.24325677     0.05000
H2144       H  0.98732943  0.16206485  0.23894668     0.08200
H2145       H  0.96231071  0.12877747  0.24702129     0.08200
H2146       H  0.53550889  0.14540186  0.33556581     0.08200
H2147       H  0.49209914  0.14818768  0.34065253     0.08200
H2148       H  0.51574334  0.18440604  0.33592506     0.05000
C2149       C  0.97462220  0.13938755  0.44532829    -0.20800
C2150       C  0.00441784  0.15440290  0.44970981    -0.07400
C2151       C  0.53288980  0.14560301  0.43931800     0.13500
C2152       C  0.53083180  0.12213848  0.42446946    -0.20900
C2153       C  0.00087583  0.10727258  0.41966399    -0.07400
C2154       C  0.97234706  0.11595250  0.43045003     0.13500
C2155       C  0.93945757  0.10061220  0.42674426    -0.24200
H2156       H  0.95294677  0.14636842  0.45353509     0.14800
H2157       H  0.55285490  0.11566075  0.41647267     0.14800
C2158       C  0.56539055  0.16101043  0.44395111    -0.24200
H2159       H  0.92050289  0.10944674  0.43718540     0.05000
H2160       H  0.94115391  0.07377859  0.42850480     0.08200
H2161       H  0.93108677  0.10680012  0.41179694     0.08200
H2162       H  0.57169394  0.15605984  0.45943869     0.08200
H2163       H  0.56412070  0.18775384  0.44162618     0.08200
H2164       H  0.58532499  0.15126821  0.43451693     0.05000
C2165       C  0.53257005  0.34962708  0.42165240    -0.20800
C2166       C  0.00347749  0.36593015  0.41692519    -0.07400
C2167       C  0.97612550  0.36261622  0.42977620     0.13500
C2168       C  0.97808778  0.34159474  0.44602423    -0.20900
C2169       C  0.00663433  0.32411162  0.45000419    -0.07400
C2170       C  0.53454666  0.32902193  0.43803248     0.13500
C2171       C  0.56674831  0.31275408  0.44208637    -0.24200
H2172       H  0.55397313  0.35250023  0.41232404     0.14800
H2173       H  0.95687203  0.33800464  0.45542098     0.14800
C2174       C  0.94487582  0.38126825  0.42679769    -0.24200
H2175       H  0.58596785  0.33165892  0.44396103     0.05000
H2176       H  0.57358778  0.29689829  0.42956172     0.08200
H2177       H  0.56614942  0.29763514  0.45554240     0.08200
H2178       H  0.93291838  0.37330578  0.41309833     0.08200
H2179       H  0.95020680  0.40781038  0.42616441     0.08200
H2180       H  0.92711550  0.37714432  0.43895783     0.05000
C2181       C  0.63065154  0.44572380  0.42392859    -0.20800
C2182       C  0.62066704  0.47735422  0.41861312    -0.07400
C2183       C  0.63204787  0.50429348  0.42968438     0.13500
C2184       C  0.65368498  0.49884951  0.44515564    -0.20900
C2185       C  0.66415794  0.46741857  0.44993232    -0.07400
C2186       C  0.65225753  0.44046544  0.43940617     0.13500
C2187       C  0.66265810  0.40625726  0.44436922    -0.24200
H2188       H  0.62193440  0.42485353  0.41577319     0.14800
H2189       H  0.66303975  0.51930858  0.45345225     0.14800
C2190       C  0.62206912  0.53887599  0.42539428    -0.24200
H2191       H  0.65077366  0.38794030  0.43479144     0.05000
H2192       H  0.65584351  0.40062524  0.45977365     0.08200
H2193       H  0.68981306  0.90392508  0.44240695     0.08200
H2194       H  0.59508777  0.54119574  0.42658527     0.08200
H2195       H  0.63030536  0.04614950  0.41066829     0.08200
H2196       H  0.63297451  0.55640762  0.43587135     0.05000
C2197       C  0.87404969  0.44849970  0.42749722    -0.20800
C2198       C  0.87852378  0.47877418  0.41811400    -0.07400
C2199       C  0.86044247  0.50602690  0.42509254     0.13500
C2200       C  0.83831462  0.50194095  0.44078229    -0.20900
C2201       C  0.83372308  0.47160263  0.44980604    -0.07400
C2202       C  0.85207391  0.44460591  0.44325356     0.13500
C2203       C  0.84875297  0.41128324  0.45238429    -0.24200
H2204       H  0.88769889  0.42749090  0.42247080     0.14800
H2205       H  0.82443210  0.02245545  0.44617840     0.14800
C2206       C  0.86375060  0.03941432  0.41623101    -0.24200
H2207       H  0.87277581  0.40358898  0.45820730     0.05000
H2208       H  0.84062569  0.89348944  0.44099101     0.08200
H2209       H  0.83073397  0.41045081  0.46459074     0.08200
H2210       H  0.85715541  0.03833306  0.40052239     0.08200
H2211       H  0.88864052  0.54876058  0.41759900     0.08200
H2212       H  0.84722887  0.05729577  0.42340660     0.05000
C2213       C  0.63448500  0.49528737  0.57733168    -0.20800
C2214       C  0.61582762  0.46780994  0.58271958    -0.07400
C2215       C  0.62070150  0.43806899  0.57246901     0.13500
C2216       C  0.64427986  0.43675287  0.55740282    -0.20900
C2217       C  0.66312807  0.46412375  0.55243338    -0.07400
C2218       C  0.65815947  0.49374617  0.56242357     0.13500
C2219       C  0.67785681  0.52374162  0.55733033    -0.24200
H2220       H  0.63096092  0.51808999  0.58503085     0.14800
H2221       H  0.64831507  0.41419210  0.54952000     0.14800
C2222       C  0.60102899  0.40773916  0.57692598    -0.24200
H2223       H  0.67095378  0.04488621  0.56664581     0.05000
H2224       H  0.67416030  0.53016961  0.54172142     0.08200
H2225       H  0.70451492  0.01892993  0.56002691     0.08200
H2226       H  0.57452328  0.41294653  0.57558853     0.08200
H2227       H  0.60561586  0.89891897  0.59141336     0.08200
H2228       H  0.60699792  0.38759072  0.56666577     0.05000
C2229       C  0.87039357  0.44403229  0.57516120    -0.20800
C2230       C  0.87297382  0.47420562  0.58479376    -0.07400
C2231       C  0.85434357  0.00104056  0.57801977     0.13500
C2232       C  0.83376312  0.99666196  0.56193943    -0.20900
C2233       C  0.83135678  0.46643017  0.55234670    -0.07400
C2234       C  0.85010868  0.43987549  0.55891690     0.13500
C2235       C  0.84897141  0.40686572  0.54929788    -0.24200
H2236       H  0.88419040  0.42337785  0.58036207     0.14800
H2237       H  0.81886425  0.01672054  0.55687047     0.14800
C2238       C  0.85468717  0.03391049  0.58784791    -0.24200
H2239       H  0.84063953  0.38832397  0.56011122     0.05000
H2240       H  0.87379666  0.90042462  0.54404298     0.08200
H2241       H  0.83224806  0.40599582  0.53663673     0.08200
H2242       H  0.87936794  0.04503581  0.58654826     0.08200
H2243       H  0.84750907  0.53123145  0.60336576     0.08200
H2244       H  0.83721694  0.05107956  0.58102034     0.05000
C2245       C  0.52279935  0.11988781  0.57698644    -0.20800
C2246       C  0.99405677  0.10150624  0.57996641    -0.07400
C2247       C  0.96652139  0.10822246  0.56810752     0.13500
C2248       C  0.96858008  0.13307722  0.55389424    -0.20900
C2249       C  0.99716802  0.15161433  0.55132973    -0.07400
C2250       C  0.52456765  0.14492768  0.56298319     0.13500
C2251       C  0.55575542  0.16422598  0.56060559    -0.24200
H2252       H  0.54400525  0.11507358  0.58590440     0.14800
H2253       H  0.94769862  0.13829484  0.54476903     0.14800
C2254       C  0.93507853  0.08914608  0.56998743    -0.24200
H2255       H  0.57499920  0.15568692  0.57074120     0.05000
H2256       H  0.55107175  0.19034151  0.56372473     0.08200
H2257       H  0.56518352  0.16172481  0.54539586     0.08200
H2258       H  0.92374412  0.09343667  0.58456443     0.08200
H2259       H  0.93996112  0.06275194  0.56800065     0.08200
H2260       H  0.91699987  0.09657799  0.55881509     0.05000
C2261       C  0.52324134  0.34613151  0.58072074    -0.20800
C2262       C  0.99365380  0.36131097  0.58603089    -0.07400
C2263       C  0.96602268  0.35685411  0.57384097     0.13500
C2264       C  0.96859098  0.33671043  0.55726069    -0.20900
C2265       C  0.99781815  0.32073983  0.55260466    -0.07400
C2266       C  0.52553805  0.32573717  0.56430647     0.13500
C2267       C  0.55739003  0.30900596  0.55964079    -0.24200
H2268       H  0.54463673  0.34952691  0.58973310     0.14800
H2269       H  0.94741086  0.33255194  0.54816090     0.14800
C2270       C  0.93381323  0.37322081  0.57793509    -0.24200
H2271       H  0.57678090  0.31571468  0.57018462     0.05000
H2272       H  0.56587826  0.31610682  0.54475051     0.08200
H2273       H  0.55401902  0.28216420  0.56023290     0.08200
H2274       H  0.93750299  0.40001330  0.57844032     0.08200
H2275       H  0.92338715  0.36436550  0.59202625     0.08200
H2276       H  0.91558072  0.36796329  0.56640197     0.05000
C2277       C  0.58665225  0.22587034  0.19810181    -0.20800
C2278       C  0.60519727  0.25462094  0.20014729    -0.07400
C2279       C  0.59343238  0.27925462  0.21292181     0.13500
C2280       C  0.56497254  0.27344377  0.22419076    -0.20900
C2281       C  0.54764300  0.24399140  0.22279404    -0.07400
C2282       C  0.55783988  0.22049748  0.20897033     0.13500
C2283       C  0.53787553  0.19021351  0.20513730    -0.24200
H2284       H  0.59465918  0.20734457  0.18786028     0.14800
H2285       H  0.55676715  0.29159602  0.23462956     0.14800
C2286       C  0.61101321  0.31131585  0.21524067    -0.24200
H2287       H  0.54800881  0.17593761  0.19270201     0.05000
H2288       H  0.51243467  0.19713154  0.20145534     0.08200
H2289       H  0.53757693  0.17404276  0.21811624     0.08200
H2290       H  0.61102211  0.32480851  0.20115316     0.08200
H2291       H  0.63653457  0.30704394  0.21996535     0.08200
H2292       H  0.59896102  0.32704467  0.22636612     0.05000
C2293       C  0.87314400  0.24874530  0.22292037    -0.20800
C2294       C  0.87851442  0.25419839  0.20291817    -0.07400
C2295       C  0.91090338  0.25542310  0.19560535     0.13500
C2296       C  0.93720958  0.25102147  0.20847795    -0.20900
C2297       C  0.93197042  0.24522308  0.22852738    -0.07400
C2298       C  0.89933402  0.24489880  0.23591300     0.13500
C2299       C  0.89091891  0.24200513  0.25739730    -0.24200
H2300       H  0.84825269  0.24793849  0.22851852     0.14800
H2301       H  0.96202263  0.25131733  0.20275982     0.14800
C2302       C  0.91766715  0.26078252  0.17414368    -0.24200
H2303       H  0.87473126  0.26247876  0.26173890     0.05000
H2304       H  0.91245658  0.24335045  0.26703273     0.08200
H2305       H  0.87780919  0.21867769  0.26014105     0.08200
H2306       H  0.90739563  0.28454953  0.16951907     0.08200
H2307       H  0.90621054  0.24096993  0.16550265     0.08200
H2308       H  0.94430326  0.26097585  0.17081719     0.05000
C2309       C  0.71627930  0.10749060  0.05759763    -0.20800
C2310       C  0.74613386  0.09361758  0.05202267    -0.07400
C2311       C  0.77517772  0.10419625  0.06107158     0.13500
C2312       C  0.77349903  0.12773643  0.07590243    -0.20900
C2313       C  0.74359722  0.14158543  0.08180606    -0.07400
C2314       C  0.71455844  0.13151751  0.07220196     0.13500
C2315       C  0.68177867  0.14648067  0.07659829    -0.24200
H2316       H  0.69419361  0.09952610  0.05033416     0.14800
H2317       H  0.79598138  0.13532516  0.08285359     0.14800
C2318       C  0.80838403  0.09146415  0.05528749    -0.24200
H2319       H  0.66235209  0.13684746  0.06690810     0.05000
H2320       H  0.68342795  0.17316957  0.07417074     0.08200
H2321       H  0.67420875  0.14108966  0.09190204     0.08200
H2322       H  0.80742931  0.07317489  0.04338904     0.08200
H2323       H  0.82000434  0.07990136  0.06815236     0.08200
H2324       H  0.82399331  0.11203906  0.05017090     0.05000
C2325       C  0.72225144  0.40514280  0.05467164    -0.20800
C2326       C  0.75007267  0.42431764  0.05113840    -0.07400
C2327       C  0.77754125  0.42084978  0.06326943     0.13500
C2328       C  0.77562110  0.40014961  0.07962923    -0.20900
C2329       C  0.74695081  0.38244118  0.08406351    -0.07400
C2330       C  0.72040684  0.38394542  0.07083858     0.13500
C2331       C  0.69032185  0.36298846  0.07327873    -0.24200
H2332       H  0.70156451  0.40742554  0.04496809     0.14800
H2333       H  0.79648455  0.39836957  0.08922430     0.14800
C2334       C  0.80880463  0.43910304  0.05892342    -0.24200
H2335       H  0.67346460  0.36565510  0.06073835     0.05000
H2336       H  0.67662634  0.37012129  0.08667634     0.08200
H2337       H  0.69742990  0.33693138  0.07415105     0.08200
H2338       H  0.80448836  0.46575852  0.05957653     0.08200
H2339       H  0.81782962  0.43257831  0.04406396     0.08200
H2340       H  0.82821469  0.43305809  0.06957524     0.05000
C2341       C  0.72291368  0.13602020  0.92967366    -0.20800
C2342       C  0.75275488  0.14397547  0.92036382    -0.07400
C2343       C  0.78165035  0.12771922  0.92646434     0.13500
C2344       C  0.77951721  0.10370329  0.94111890    -0.20900
C2345       C  0.74961812  0.09568070  0.95001878    -0.07400
C2346       C  0.72106232  0.11217470  0.94441021     0.13500
C2347       C  0.68860323  0.10430134  0.95389967    -0.24200
H2348       H  0.70075232  0.14837074  0.92535208     0.14800
H2349       H  0.80131520  0.09093691  0.94569471     0.14800
C2350       C  0.81488964  0.13493424  0.91771011    -0.24200
H2351       H  0.66860811  0.11940671  0.94785243     0.05000
H2352       H  0.68989403  0.10891491  0.96988186     0.08200
H2353       H  0.68241221  0.07827706  0.95141238     0.08200
H2354       H  0.82140341  0.16089166  0.92016437     0.08200
H2355       H  0.81495449  0.12937611  0.90181685     0.08200
H2356       H  0.83432579  0.11993231  0.92446715     0.05000
C2357       C  0.72877705  0.38565888  0.92740874    -0.20800
C2358       C  0.75564904  0.38719121  0.91443598    -0.07400
C2359       C  0.78196178  0.40855609  0.91875611     0.13500
C2360       C  0.78043018  0.42784410  0.93571036    -0.20900
C2361       C  0.75322893  0.42676591  0.94834000    -0.07400
C2362       C  0.72727238  0.40512535  0.94429161     0.13500
C2363       C  0.69754948  0.40326761  0.95744143    -0.24200
H2364       H  0.70864976  0.36928503  0.92426394     0.14800
H2365       H  0.80004481  0.44485800  0.93881912     0.14800
C2366       C  0.81093666  0.41265282  0.90516509    -0.24200
H2367       H  0.67910697  0.38577493  0.95181996     0.05000
H2368       H  0.68591951  0.42761011  0.95849221     0.08200
H2369       H  0.70469304  0.39508031  0.97227204     0.08200
H2370       H  0.80249501  0.41991986  0.89039665     0.08200
H2371       H  0.82482297  0.38957925  0.90419398     0.08200
H2372       H  0.82807017  0.43175509  0.91038369     0.05000
C2373       C  0.98236632  0.14477865  0.73003042    -0.20800
C2374       C  0.00320233  0.17157711  0.72574911    -0.07400
C2375       C  0.52520537  0.16814020  0.70946752     0.13500
C2376       C  0.52300093  0.14063932  0.69726739    -0.20900
C2377       C  0.00067176  0.11546478  0.70100319    -0.07400
C2378       C  0.98094880  0.11699305  0.71798732     0.13500
C2379       C  0.95943261  0.08868137  0.72397588    -0.24200
H2380       H  0.96754228  0.14445370  0.74311683     0.14800
H2381       H  0.53904791  0.13869634  0.68460705     0.14800
C2382       C  0.55248286  0.19201306  0.70500301    -0.24200
H2383       H  0.94702017  0.09304003  0.73825462     0.05000
H2384       H  0.97447019  0.06633655  0.72541270     0.08200
H2385       H  0.94022143  0.08458898  0.71289076     0.08200
H2386       H  0.56984997  0.19224720  0.71725534     0.08200
H2387       H  0.54334380  0.21679490  0.70205631     0.08200
H2388       H  0.56681224  0.18481188  0.69182554     0.05000
C2389       C  0.52471646  0.34220777  0.71385545    -0.20800
C2390       C  0.99417602  0.35616328  0.70982328    -0.07400
C2391       C  0.96555462  0.34049981  0.71727315     0.13500
C2392       C  0.96831890  0.30998788  0.72660804    -0.20900
C2393       C  0.99883677  0.29538588  0.72938851    -0.07400
C2394       C  0.52734548  0.31220227  0.72351746     0.13500
C2395       C  0.56065102  0.29798813  0.72683072    -0.24200
H2396       H  0.54688672  0.35426882  0.70887522     0.14800
H2397       H  0.94648214  0.29713059  0.73137443     0.14800
C2398       C  0.93207933  0.35547278  0.71567335    -0.24200
H2399       H  0.58048188  0.31433309  0.72143471     0.05000
H2400       H  0.56262630  0.27456337  0.71885272     0.08200
H2401       H  0.56435007  0.29400154  0.74271345     0.08200
H2402       H  0.92451535  0.35654435  0.70014632     0.08200
H2403       H  0.93228078  0.38033816  0.72207641     0.08200
H2404       H  0.91328629  0.34097347  0.72371609     0.05000
C2405       C  0.55949459  0.25570114  0.79248468    -0.20800
C2406       C  0.56507692  0.24367078  0.77347856    -0.07400
C2407       C  0.59793954  0.23955765  0.76695935     0.13500
C2408       C  0.62368970  0.24476785  0.78000885    -0.20900
C2409       C  0.61793085  0.25615286  0.79896848    -0.07400
C2410       C  0.58556836  0.26238859  0.80520123     0.13500
C2411       C  0.57854180  0.27523320  0.82543277    -0.24200
H2412       H  0.53460028  0.25913954  0.79761868     0.14800
H2413       H  0.64865725  0.24050772  0.77519103     0.14800
C2414       C  0.60726642  0.23125599  0.74621663    -0.24200
H2415       H  0.55190051  0.27828402  0.82810306     0.05000
H2416       H  0.59051493  0.29935013  0.82726334     0.08200
H2417       H  0.58809796  0.25807099  0.83655752     0.08200
H2418       H  0.58651282  0.23312578  0.73617002     0.08200
H2419       H  0.61760256  0.20629776  0.74560142     0.08200
H2420       H  0.62592896  0.24886457  0.74075606     0.05000
C2421       C  0.91154354  0.22642589  0.80537039    -0.20800
C2422       C  0.89174691  0.25343544  0.80109682    -0.07400
C2423       C  0.90257111  0.27598581  0.78668607     0.13500
C2424       C  0.93167639  0.26974775  0.77619572    -0.20900
C2425       C  0.95000840  0.24150339  0.77956973    -0.07400
C2426       C  0.94060019  0.22035010  0.79494467     0.13500
C2427       C  0.96155387  0.19182150  0.80075088    -0.24200
H2428       H  0.90415497  0.20970797  0.81689245     0.14800
H2429       H  0.93941034  0.28631639  0.76472489     0.14800
C2430       C  0.88296721  0.30577994  0.78159378    -0.24200
H2431       H  0.95152741  0.17908729  0.81386092     0.05000
H2432       H  0.98654606  0.20056247  0.80426982     0.08200
H2433       H  0.96303153  0.17374658  0.78875180     0.08200
H2434       H  0.88133988  0.32222969  0.79443659     0.08200
H2435       H  0.85802160  0.29845507  0.77702618     0.08200
H2436       H  0.89439196  0.31979259  0.76938062     0.05000
C2437       C  0.81964056  0.47711476  0.72824194    -0.20800
C2438       C  0.80062101  0.50499804  0.72497449    -0.07400
C2439       C  0.81033090  0.02686486  0.71004534     0.13500
C2440       C  0.83909112  0.02113642  0.69926675    -0.20900
C2441       C  0.85868569  0.49399455  0.70286511    -0.07400
C2442       C  0.84871009  0.47142352  0.71749759     0.13500
C2443       C  0.86914651  0.44211312  0.72244797    -0.24200
H2444       H  0.81228880  0.46025980  0.73967181     0.14800
H2445       H  0.84615853  0.03827940  0.68790270     0.14800
C2446       C  0.78998642  0.05627080  0.70519794    -0.24200
H2447       H  0.85860828  0.42817979  0.73496548     0.05000
H2448       H  0.89435714  0.94984192  0.72651036     0.08200
H2449       H  0.87047679  0.42539742  0.70972076     0.08200
H2450       H  0.79040866  0.07375301  0.71750653     0.08200
H2451       H  0.76419183  0.54882720  0.70230020     0.08200
H2452       H  0.79947262  0.06925128  0.69203811     0.05000
C2453       C  0.68839120  0.49512264  0.70682282    -0.20800
C2454       C  0.68320146  0.50369045  0.72652046    -0.07400
C2455       C  0.65066175  0.00534663  0.73370814     0.13500
C2456       C  0.62450620  0.00044098  0.72088386    -0.20900
C2457       C  0.62962609  0.49292343  0.70128222    -0.07400
C2458       C  0.66194308  0.48986195  0.69410700     0.13500
C2459       C  0.66840028  0.48184182  0.67292615    -0.24200
H2460       H  0.71320873  0.49357756  0.70120562     0.14800
H2461       H  0.59960684  0.00251566  0.72633877     0.14800
C2462       C  0.64184188  0.01139389  0.75488088    -0.24200
H2463       H  0.69499513  0.48042571  0.66962837     0.05000
H2464       H  0.65791579  0.00057545  0.66339299     0.08200
H2465       H  0.65714950  0.45794783  0.66933297     0.08200
H2466       H  0.62846000  0.03478756  0.75618471     0.08200
H2467       H  0.66295522  0.51220077  0.76477141     0.08200
H2468       H  0.62574707  0.99138947  0.76027823     0.05000
C2469       C  0.73356759  0.07023876  0.79676591    -0.20800
C2470       C  0.74198927  0.07235300  0.77667229    -0.07400
C2471       C  0.74870723  0.10406226  0.76893336     0.13500
C2472       C  0.75166330  0.13079045  0.78170214    -0.20900
C2473       C  0.74536560  0.12769257  0.80176157    -0.07400
C2474       C  0.73516334  0.09730692  0.80927614     0.13500
C2475       C  0.72622321  0.09324574  0.83060779    -0.24200
H2476       H  0.72461188  0.04773006  0.80296658     0.14800
H2477       H  0.75780777  0.15461868  0.77580848     0.14800
C2478       C  0.75195658  0.11148595  0.74736844    -0.24200
H2479       H  0.71954539  0.06765616  0.83422050     0.05000
H2480       H  0.70493942  0.10882576  0.83431624     0.08200
H2481       H  0.74728616  0.10032891  0.83983152     0.08200
H2482       H  0.73488787  0.13141829  0.74349959     0.08200
H2483       H  0.74567414  0.09081033  0.73780336     0.08200
H2484       H  0.77731673  0.11958942  0.74398815     0.05000
C2485       C  0.77623472  0.43752311  0.77660501    -0.20800
C2486       C  0.74530136  0.44855844  0.77117645    -0.07400
C2487       C  0.71749475  0.42947928  0.77546233     0.13500
C2488       C  0.72120258  0.39981164  0.78531579    -0.20900
C2489       C  0.75196093  0.38926425  0.79179461    -0.07400
C2490       C  0.78009434  0.40817993  0.78691816     0.13500
C2491       C  0.81412620  0.39873775  0.79298044    -0.24200
H2492       H  0.79735310  0.45278990  0.77354349     0.14800
H2493       H  0.69955614  0.38555449  0.78879137     0.14800
C2494       C  0.68372422  0.44126186  0.77072584    -0.24200
H2495       H  0.83284272  0.41611716  0.78730962     0.05000
H2496       H  0.82023170  0.37427876  0.78709500     0.08200
H2497       H  0.81590745  0.39878207  0.80917800     0.08200
H2498       H  0.68185529  0.44605258  0.75479162     0.08200
H2499       H  0.67880896  0.46390749  0.77905049     0.08200
H2500       H  0.66461991  0.42314541  0.77485711     0.05000
C2501       C  0.62239971  0.29880686  0.07343594    -0.20800
C2502       C  0.62646154  0.26825827  0.08243914    -0.07400
C2503       C  0.60913072  0.24098817  0.07491842     0.13500
C2504       C  0.58850879  0.24521538  0.05881118    -0.20900
C2505       C  0.58394877  0.27593014  0.05036695    -0.07400
C2506       C  0.60117413  0.30306456  0.05767443     0.13500
C2507       C  0.59685709  0.33699313  0.04964906    -0.24200
H2508       H  0.63518039  0.31990734  0.07905981     0.14800
H2509       H  0.57474725  0.22467338  0.05319532     0.14800
C2510       C  0.61060452  0.20770863  0.08418476    -0.24200
H2511       H  0.62075643  0.34642330  0.04424420     0.05000
H2512       H  0.58767754  0.35323835  0.06144962     0.08200
H2513       H  0.57937187  0.33807964  0.03737635     0.08200
H2514       H  0.60213977  0.20904215  0.09964496     0.08200
H2515       H  0.63590496  0.19842762  0.08351490     0.08200
H2516       H  0.59482327  0.18977055  0.07655218     0.05000
C2517       C  0.89759244  0.30525258  0.05813509    -0.20800
C2518       C  0.91476093  0.27728152  0.05254862    -0.07400
C2519       C  0.90874193  0.24757398  0.06240898     0.13500
C2520       C  0.88535424  0.24651944  0.07751306    -0.20900
C2521       C  0.86824115  0.27453842  0.08341421    -0.07400
C2522       C  0.87463408  0.30448087  0.07355541     0.13500
C2523       C  0.85758066  0.33579793  0.07894929    -0.24200
H2524       H  0.90265942  0.32795671  0.05053870     0.14800
H2525       H  0.88095983  0.22355512  0.08496225     0.14800
C2526       C  0.92677874  0.21662221  0.05751311    -0.24200
H2527       H  0.86479559  0.35618341  0.06908330     0.05000
H2528       H  0.86421416  0.34312551  0.09403203     0.08200
H2529       H  0.83068797  0.33263755  0.07785076     0.08200
H2530       H  0.94046834  0.20830149  0.07054685     0.08200
H2531       H  0.94445594  0.21954494  0.04524389     0.08200
H2532       H  0.90897287  0.19741810  0.05335000     0.05000
C2533       C  0.58452555  0.25328258  0.93828845    -0.20800
C2534       C  0.58223122  0.28304744  0.94814424    -0.07400
C2535       C  0.60323388  0.30901968  0.94281635     0.13500
C2536       C  0.62584608  0.30455248  0.92749012    -0.20900
C2537       C  0.62827735  0.27466045  0.91751133    -0.07400
C2538       C  0.60723599  0.24859503  0.92309210     0.13500
C2539       C  0.60767933  0.21594909  0.91298759    -0.24200
H2540       H  0.56826240  0.23354794  0.94258492     0.14800
H2541       H  0.64184735  0.32462083  0.92341089     0.14800
C2542       C  0.60233303  0.34164179  0.95290510    -0.24200
H2543       H  0.58849496  0.19927811  0.91885989     0.05000
H2544       H  0.63158482  0.20388850  0.91526031     0.08200
H2545       H  0.60310960  0.21917040  0.89711113     0.08200
H2546       H  0.62650139  0.34671795  0.95953789     0.08200
H2547       H  0.58352322  0.34288633  0.96465945     0.08200
H2548       H  0.59694857  0.36099518  0.94204309     0.05000
C2549       C  0.88580054  0.24555439  0.92492422    -0.20800
C2550       C  0.86959805  0.27361613  0.91831842    -0.07400
C2551       C  0.87482780  0.30357722  0.92832036     0.13500
C2552       C  0.89660838  0.30461025  0.94408128    -0.20900
C2553       C  0.91364723  0.27685878  0.94995343    -0.07400
C2554       C  0.90800032  0.24691770  0.94044917     0.13500
C2555       C  0.92585366  0.21655595  0.94650909    -0.24200
H2556       H  0.88187108  0.22252974  0.91755053     0.14800
H2557       H  0.90117576  0.32743509  0.95156796     0.14800
C2558       C  0.85790147  0.33472429  0.92266395    -0.24200
H2559       H  0.91849168  0.19512849  0.93764054     0.05000
H2560       H  0.92040347  0.21106015  0.96211720     0.08200
H2561       H  0.95259933  0.22020001  0.94457827     0.08200
H2562       H  0.83098172  0.33114678  0.92307948     0.08200
H2563       H  0.86597491  0.34242719  0.90781240     0.08200
H2564       H  0.86380009  0.35502673  0.93279371     0.05000
C2565       C  0.87520621  0.50094336  0.27843040    -0.20800
C2566       C  0.87034829  0.49174670  0.29793622    -0.07400
C2567       C  0.83830805  0.48626999  0.30509359     0.13500
C2568       C  0.81161224  0.49103897  0.29261392    -0.20900
C2569       C  0.81629384  0.50139215  0.27322135    -0.07400
C2570       C  0.84871680  0.50522377  0.26582092     0.13500
C2571       C  0.85664019  0.51313481  0.24471704    -0.24200
H2572       H  0.89991808  0.50475421  0.27296641     0.14800
H2573       H  0.78682641  0.98790835  0.29826649     0.14800
C2574       C  0.83225511  0.47669451  0.32610064    -0.24200
H2575       H  0.87361698  0.49448822  0.23874770     0.05000
H2576       H  0.86872448  0.03719283  0.24382388     0.08200
H2577       H  0.83496244  0.51311749  0.23515478     0.08200
H2578       H  0.84210664  0.99547034  0.33598700     0.08200
H2579       H  0.84435019  0.45309947  0.32919099     0.08200
H2580       H  0.80561037  0.97366653  0.32938757     0.05000
C2581       C  0.64706141  0.47685405  0.28493703    -0.20800
C2582       C  0.64222401  0.49651607  0.30149512    -0.07400
C2583       C  0.66741950  0.01822908  0.30712800     0.13500
C2584       C  0.69578130  0.02105524  0.29543821    -0.20900
C2585       C  0.69998105  0.50256408  0.27838701    -0.07400
C2586       C  0.67547412  0.47981946  0.27324618     0.13500
C2587       C  0.67839913  0.45989192  0.25489204    -0.24200
H2588       H  0.62796013  0.45995393  0.28071455     0.14800
H2589       H  0.71455692  0.03856064  0.29930453     0.14800
C2590       C  0.66516154  0.03812516  0.32561877    -0.24200
H2591       H  0.65686214  0.44375143  0.25280724     0.05000
H2592       H  0.70043678  0.44428854  0.25563493     0.08200
H2593       H  0.68017748  0.47646203  0.24209267     0.08200
H2594       H  0.66046111  0.52185043  0.33831931     0.08200
H2595       H  0.64538006  0.05640200  0.32442460     0.08200
H2596       H  0.68821003  0.05163517  0.32846549     0.05000
C2597       C  0.72236711  0.11026369  0.20398727    -0.20800
C2598       C  0.74930848  0.13121509  0.20214122    -0.07400
C2599       C  0.77734244  0.12522102  0.21350909     0.13500
C2600       C  0.77801636  0.09792502  0.22582523    -0.20900
C2601       C  0.75134283  0.07613468  0.22760270    -0.07400
C2602       C  0.72274679  0.08298590  0.21644206     0.13500
C2603       C  0.69214508  0.06206830  0.21713803    -0.24200
H2604       H  0.70081627  0.11502088  0.19534522     0.14800
H2605       H  0.80040761  0.09379742  0.23347283     0.14800
C2606       C  0.80681687  0.14755637  0.21307051    -0.24200
H2607       H  0.67392798  0.07008666  0.20620256     0.05000
H2608       H  0.67980652  0.06398146  0.23155421     0.08200
H2609       H  0.69759907  0.03627434  0.21381166     0.08200
H2610       H  0.79921309  0.17294132  0.21633272     0.08200
H2611       H  0.81910389  0.14645701  0.19854744     0.08200
H2612       H  0.82528015  0.14055152  0.22411014     0.05000
C2613       C  0.72544679  0.44894842  0.21372814    -0.20800
C2614       C  0.75174427  0.45358617  0.22645402    -0.07400
C2615       C  0.77533913  0.42872062  0.22831221     0.13500
C2616       C  0.77148492  0.39963660  0.21771943    -0.20900
C2617       C  0.74477740  0.39469814  0.20525971    -0.07400
C2618       C  0.72137537  0.41987037  0.20326408     0.13500
C2619       C  0.69271115  0.41718564  0.18963992    -0.24200
H2620       H  0.70792682  0.46843182  0.21189191     0.14800
H2621       H  0.78978233  0.38071914  0.21895566     0.14800
C2622       C  0.80568244  0.43333521  0.24033660    -0.24200
H2623       H  0.67788248  0.43980913  0.18949200     0.05000
H2624       H  0.67634296  0.39702126  0.19443986     0.08200
H2625       H  0.70153524  0.41282596  0.17445483     0.08200
H2626       H  0.79929223  0.43584879  0.25603388     0.08200
H2627       H  0.81904324  0.45533105  0.23521467     0.08200
H2628       H  0.82251966  0.41227369  0.23896585     0.05000
C2629       C  0.75445062  0.54481686  0.23988697     0.86000
C2630       C  0.78558603  0.54006096  0.25220507    -0.54300
C2631       C  0.78703318  0.01073051  0.26173001     0.08900
C2632       C  0.75625981  0.98931487  0.25903615     0.19800
C2633       C  0.75336198  0.51428952  0.22685372    -0.55000
C2634       C  0.75413556  0.98535779  0.23671496     0.09000
C2635       C  0.72694717  0.54047361  0.25505947    -0.54500
C2636       C  0.72705844  0.01131314  0.26469047     0.09600
H2637       H  0.80513494  0.55755499  0.25390922     0.14100
H2638       H  0.75647999  0.96596304  0.26722616    -0.00200
H2639       H  0.75196525  0.01548030  0.21099917     0.14400
H2640       H  0.70878455  0.55899021  0.25816491     0.14200
N2641       N  0.94800829  0.78281014  0.00107352    -0.37100
N2642       N  0.49809782  0.78396630  0.97040126    -0.57700
N2643       N  0.54914734  0.78548333  0.99979345    -0.37100
N2644       N  0.49904586  0.78057103  0.03040423    -0.57700
C2645       C  0.92909213  0.77705412  0.98529701     0.26500
C2646       C  0.92950892  0.77705229  0.01723279     0.26500
C2647       C  0.56741477  0.78068529  0.98346217     0.26500
C2648       C  0.56788761  0.77750094  0.01527217     0.26500
C2649       C  0.97126224  0.78675727  0.95914082     0.35100
C2650       C  0.52414731  0.78975584  0.95856916     0.35100
C2651       C  0.97290092  0.78355376  0.04249333     0.35100
C2652       C  0.52579398  0.78325385  0.04174621     0.35100
C2653       C  0.89786794  0.76839300  0.99152707    -0.22400
C2654       C  0.89810628  0.76847775  0.01166643    -0.22400
C2655       C  0.59842689  0.77040267  0.98865071    -0.22400
C2656       C  0.59871915  0.76839871  0.00873382    -0.22400
C2657       C  0.98035263  0.79419912  0.94004356    -0.23500
C2658       C  0.51382782  0.79624414  0.93970390    -0.23500
C2659       C  0.98310920  0.78790158  0.06160592    -0.23500
C2660       C  0.51657782  0.78765457  0.06113950    -0.23500
C2661       C  0.93877125  0.78058240  0.96544083    -0.18800
C2662       C  0.93990596  0.77989412  0.03687442    -0.18800
C2663       C  0.55840551  0.77940814  0.03517996    -0.18800
C2664       C  0.55716225  0.78596527  0.96401117    -0.18800
H2665       H  0.87700331  0.76270012  0.98250726     0.14100
H2666       H  0.87749951  0.76272442  0.02112352     0.14100
H2667       H  0.61873371  0.76477673  0.97897783     0.14100
H2668       H  0.61930010  0.76101071  0.01751489     0.14100
H2669       H  0.96454799  0.79742813  0.92757965     0.12400
H2670       H  0.52889453  0.80116392  0.92692271     0.12400
H2671       H  0.96800341  0.79040549  0.07460318     0.12400
H2672       H  0.53232706  0.78998242  0.07370694     0.12400
H2673       H  0.97129676  0.79284812  0.00086557     0.25600
H2674       H  0.52636584  0.79650680  0.00041059     0.25600
C2675       C  0.74253116  0.54144711  0.76390715     0.86000
C2676       C  0.71303795  0.53926960  0.75026586    -0.54300
C2677       C  0.71226533  0.01187168  0.73877394     0.08900
C2678       C  0.74248038  0.98973214  0.74117104     0.19800
C2679       C  0.74270530  0.50846929  0.77496703    -0.55000
C2680       C  0.74258378  0.98165787  0.76307174     0.09000
C2681       C  0.77272074  0.53863645  0.75044487    -0.54500
C2682       C  0.77268041  0.01207271  0.73828565     0.09600
H2683       H  0.69381316  0.55745899  0.75018533     0.14100
H2684       H  0.74248444  0.96780267  0.73165616    -0.00200
H2685       H  0.74504779  0.00535166  0.79061090     0.14400
H2686       H  0.79304808  0.55570925  0.75088067     0.14200
C2687       C  0.00237822  0.70268245  0.73876492     0.86000
C2688       C  0.97491587  0.70548836  0.75440106    -0.54300
C2689       C  0.97637009  0.73305148  0.76558799     0.08900
C2690       C  0.50482385  0.75597036  0.75999167     0.19800
C2691       C  0.99849438  0.73462874  0.72705681    -0.55000
C2692       C  0.00034944  0.76230716  0.73806865     0.09000
C2693       C  0.53400960  0.70678379  0.75057000    -0.54500
C2694       C  0.53586531  0.73488129  0.76130412     0.09600
H2695       H  0.95420181  0.68916123  0.75575798     0.14100
H2696       H  0.50569825  0.77870720  0.76877452    -0.00200
H2697       H  0.49399734  0.73536884  0.71143826     0.14400
H2698       H  0.55314055  0.68852567  0.75066952     0.14200
N2699       N  0.74787246  0.95937500  0.00005393    -0.37100
N2700       N  0.74979143  0.51046466  0.97036104    -0.57700
N2701       N  0.74576986  0.55998066  0.00077814    -0.37100
N2702       N  0.74726492  0.50919778  0.03046525    -0.57700
C2703       C  0.75538795  0.94150528  0.98399925     0.26500
C2704       C  0.75410842  0.94077504  0.01595124     0.26500
C2705       C  0.75250981  0.57888231  0.98500269     0.26500
C2706       C  0.75114804  0.57828582  0.01688840     0.26500
C2707       C  0.74562983  0.98423099  0.95873178     0.35100
C2708       C  0.74461686  0.53702752  0.95907065     0.35100
C2709       C  0.74318455  0.98246080  0.04182153     0.35100
C2710       C  0.74214951  0.53524618  0.04221071     0.35100
C2711       C  0.76616578  0.91098631  0.98975781    -0.22400
C2712       C  0.76523490  0.91048174  0.00992752    -0.22400
C2713       C  0.76173600  0.60974064  0.99115017    -0.22400
C2714       C  0.76083428  0.60937996  0.01127292    -0.22400
C2715       C  0.73771302  0.99422486  0.93996687    -0.23500
C2716       C  0.73727339  0.52766071  0.94014155    -0.23500
C2717       C  0.73573251  0.99162678  0.06087953    -0.23500
C2718       C  0.73519367  0.52498478  0.06112638    -0.23500
C2719       C  0.75103520  0.95146264  0.96433128    -0.18800
C2720       C  0.74876742  0.94995550  0.03570071    -0.18800
C2721       C  0.74613511  0.56817650  0.03649356    -0.18800
C2722       C  0.74857128  0.56965977  0.96523310    -0.18800
H2723       H  0.77357835  0.89103013  0.98039390     0.14100
H2724       H  0.77193143  0.89010137  0.01911000     0.14100
H2725       H  0.76816670  0.63048977  0.98208781     0.14100
H2726       H  0.76653686  0.62978088  0.02068141     0.14100
H2727       H  0.73306246  0.97903365  0.92735110     0.12400
H2728       H  0.73239432  0.54327870  0.92773905     0.12400
H2729       H  0.73178429  0.97589076  0.07341251     0.12400
H2730       H  0.73070125  0.54000596  0.07387168     0.12400
H2731       H  0.73589663  0.98161993  0.00011742     0.25600
H2732       H  0.73469710  0.53719503  0.00052738     0.25600
N2733       N  0.73734052  0.83733775  0.87352735    -0.06600
N2734       N  0.72693419  0.85574387  0.88815218    -0.58800
N2735       N  0.76858271  0.83042767  0.82809446    -0.06300
N2736       N  0.77976933  0.84857285  0.81353763    -0.60900
N2737       N  0.73643135  0.83083293  0.82853385    -0.05900
N2738       N  0.72530351  0.84914915  0.81422729    -0.58700
N2739       N  0.76945377  0.83699066  0.87292506    -0.05600
N2740       N  0.78151161  0.85519219  0.88706449    -0.61200
C2741       C  0.75477996  0.86696578  0.89641708     0.95500
C2742       C  0.75255122  0.86019824  0.80489077     0.95300
N2743       N  0.82281580  0.74421326  0.83234842    -0.06800
N2744       N  0.84506186  0.73088737  0.82081768    -0.59300
N2745       N  0.82210710  0.78268940  0.87540536    -0.04900
N2746       N  0.83830538  0.79631944  0.88985476    -0.60600
N2747       N  0.82181887  0.75079867  0.87727578    -0.06900
N2748       N  0.83800213  0.74218901  0.89312870    -0.59600
N2749       N  0.82371906  0.77615061  0.83068917    -0.04600
N2750       N  0.84671064  0.78501752  0.81798863    -0.60700
Mn2751     Mn  0.79658255  0.80725143  0.85155734     1.18400
C2752       C  0.85967832  0.75648139  0.81173267     0.97600
C2753       C  0.84808462  0.77092211  0.90092133     0.98300
N2754       N  0.67953678  0.77804976  0.83241973    -0.06900
N2755       N  0.65814869  0.78734710  0.81913206    -0.63200
N2756       N  0.68179321  0.75262038  0.87874827    -0.05700
N2757       N  0.66333718  0.74370062  0.89374678    -0.63900
N2758       N  0.68205146  0.78453103  0.87703107    -0.06400
N2759       N  0.66382149  0.79793238  0.89087023    -0.63400
N2760       N  0.67950117  0.74607926  0.83408323    -0.05300
N2761       N  0.65841985  0.73299084  0.82184355    -0.64100
Mn2762     Mn  0.70822378  0.80849840  0.85274431     1.10700
C2763       C  0.64552211  0.75891251  0.81251191     0.98800
C2764       C  0.65219707  0.77212585  0.90120761     0.98900
N2765       N  0.76732514  0.69680370  0.87994905    -0.06400
N2766       N  0.77903083  0.67925336  0.89443806    -0.61800
N2767       N  0.73351642  0.69123799  0.83581730    -0.05700
N2768       N  0.72092368  0.67040347  0.82323962    -0.58500
N2769       N  0.76570849  0.69057427  0.83501571    -0.07000
N2770       N  0.77555693  0.66910812  0.82177890    -0.61300
N2771       N  0.73523010  0.69714659  0.88066461    -0.06000
N2772       N  0.72454669  0.67964764  0.89569796    -0.58500
Mn2773     Mn  0.79507183  0.71988065  0.85603643     1.20200
Mn2774     Mn  0.70692588  0.72116135  0.85737734     1.10100
Cl2775     Cl  0.75169054  0.76413507  0.85423332    -0.86500
C2776       C  0.75221319  0.66861260  0.90426478     0.95900
C2777       C  0.74731487  0.65704729  0.81439522     0.95600
N2778       N  0.72811060  0.83135426  0.17166544    -0.06600
N2779       N  0.71671817  0.85190010  0.18490387    -0.58800
N2780       N  0.76116250  0.83555370  0.12688648    -0.06300
N2781       N  0.77277439  0.85259928  0.11193248    -0.60900
N2782       N  0.72902690  0.83505771  0.12663004    -0.05900
N2783       N  0.71821779  0.85178581  0.11149531    -0.58700
N2784       N  0.76030864  0.83118763  0.17187800    -0.05600
N2785       N  0.77123266  0.85156791  0.18526164    -0.61200
C2786       C  0.74383028  0.86437604  0.19335530     0.95500
C2787       C  0.74574143  0.86251162  0.10234283     0.95300
N2788       N  0.81547988  0.75106135  0.12274909    -0.06800
N2789       N  0.83364384  0.74254620  0.10751164    -0.59300
N2790       N  0.81663336  0.77674237  0.16953327    -0.04900
N2791       N  0.83753887  0.78568909  0.18323342    -0.60600
N2792       N  0.81667311  0.74481618  0.16764122    -0.06900
N2793       N  0.83722266  0.73146011  0.18008558    -0.59600
N2794       N  0.81545627  0.78291069  0.12468202    -0.04600
N2795       N  0.83332609  0.79666931  0.11079283    -0.60700
Mn2796     Mn  0.78898023  0.80729761  0.14851548     1.18400
C2797       C  0.84448754  0.77134998  0.10006688     0.97600
C2798       C  0.84975001  0.75710268  0.18991912     0.98300
N2799       N  0.67478992  0.78067469  0.12466103    -0.06900
N2800       N  0.65788412  0.79296933  0.11005225    -0.63200
N2801       N  0.67320686  0.74433863  0.16845490    -0.05700
N2802       N  0.65084437  0.73141588  0.18017719    -0.63900
N2803       N  0.67246331  0.77634826  0.16956077    -0.06400
N2804       N  0.64944927  0.78563181  0.18208747    -0.63400
N2805       N  0.67491912  0.74868938  0.12368832    -0.05300
N2806       N  0.65815832  0.73862961  0.10842179    -0.64100
Mn2807     Mn  0.70044228  0.80663015  0.14828337     1.10700
C2808       C  0.64751412  0.76645525  0.10001403     0.98800
C2809       C  0.63626341  0.75731906  0.18880327     0.98900
N2810       N  0.76182803  0.69134526  0.16583695    -0.06400
N2811       N  0.77399734  0.67150938  0.17900791    -0.61800
N2812       N  0.72883125  0.69510699  0.12178207    -0.05700
N2813       N  0.71712392  0.67687519  0.10757429    -0.58500
N2814       N  0.76093969  0.69563435  0.12108349    -0.07000
N2815       N  0.77162769  0.67755099  0.10638226    -0.61300
N2816       N  0.72967973  0.69082551  0.16656923    -0.06000
N2817       N  0.71942680  0.67028934  0.18024881    -0.58500
Mn2818     Mn  0.78933469  0.72007903  0.14419520     1.20200
Mn2819     Mn  0.70106622  0.71908816  0.14526758     1.10100
Cl2820     Cl  0.74493691  0.76327662  0.14673654    -0.86500
C2821       C  0.74745700  0.65870014  0.18807221     0.95900
C2822       C  0.74397940  0.66613313  0.09791344     0.95600
N2823       N  0.98089266  0.55563945  0.66561918    -0.06600
N2824       N  0.97083964  0.57561046  0.67958090    -0.58800
N2825       N  0.51069335  0.54826759  0.61957492    -0.06300
N2826       N  0.52139424  0.56505049  0.60427984    -0.60900
N2827       N  0.97860450  0.54898279  0.62046020    -0.05900
N2828       N  0.96691537  0.56616604  0.60573271    -0.58700
N2829       N  0.51303529  0.55567850  0.66450934    -0.05600
N2830       N  0.52543178  0.57576895  0.67760260    -0.61200
C2831       C  0.99888684  0.58778644  0.68708986     0.95500
C2832       C  0.99383906  0.57598701  0.59560400     0.95300
N2833       N  0.56413679  0.96097720  0.62434609    -0.06800
N2834       N  0.58112671  0.94652023  0.61036535    -0.59300
N2835       N  0.56716770  0.50141785  0.66649622    -0.04900
N2836       N  0.58848299  0.51515913  0.67833638    -0.60600
N2837       N  0.56688600  0.96942904  0.66893673    -0.06900
N2838       N  0.58819628  0.96087296  0.68244323    -0.59600
N2839       N  0.56427159  0.49279336  0.62187729    -0.04600
N2840       N  0.58173019  0.50051280  0.60618062    -0.60700
Mn2841     Mn  0.53943099  0.52523635  0.64299090     1.18400
C2842       C  0.59186155  0.97136110  0.59896897     0.97600
C2843       C  0.60121452  0.98960278  0.68832680     0.98300
N2844       N  0.92405548  0.49549017  0.62456535    -0.06900
N2845       N  0.90640932  0.50477181  0.60952084    -0.63200
N2846       N  0.92356916  0.97043181  0.67105030    -0.05700
N2847       N  0.90183522  0.96188936  0.68460182    -0.63900
N2848       N  0.92441358  0.50237681  0.66925278    -0.06400
N2849       N  0.90346153  0.51602213  0.68150459    -0.63400
N2850       N  0.92367051  0.96366772  0.62624601    -0.05300
N2851       N  0.90560558  0.95066422  0.61234465    -0.64100
Mn2852     Mn  0.95139456  0.52634892  0.64505393     1.10700
C2853       C  0.89493257  0.97671828  0.60205064     0.98800
C2854       C  0.88976094  0.99059843  0.69124441     0.98900
N2855       N  0.51006155  0.91553521  0.67339273    -0.06400
N2856       N  0.52098409  0.89690800  0.68765696    -0.61800
N2857       N  0.97735989  0.90941808  0.62836996    -0.05700
N2858       N  0.96599249  0.89249482  0.61343833    -0.58500
N2859       N  0.50949215  0.90884719  0.62831351    -0.07000
N2860       N  0.52053597  0.89158667  0.61338081    -0.61300
N2861       N  0.97788568  0.91551992  0.67351994    -0.06000
N2862       N  0.96653301  0.89690811  0.68785250    -0.58500
Mn2863     Mn  0.53827794  0.93793458  0.64903965     1.20200
Mn2864     Mn  0.94994731  0.93894930  0.64993247     1.10100
Cl2865     Cl  0.99486797  0.98213295  0.64694320    -0.86500
C2866       C  0.99360327  0.88540418  0.69674500     0.95900
C2867       C  0.99318646  0.88145819  0.60414354     0.95600
N2868       N  0.57462870  0.97414201  0.33162606    -0.06600
N2869       N  0.59747799  0.96528588  0.31885242    -0.58800
N2870       N  0.57183903  0.50015887  0.37797298    -0.06300
N2871       N  0.58857381  0.50917455  0.39350413    -0.60900
N2872       N  0.57202837  0.96834347  0.37638349    -0.05900
N2873       N  0.58874833  0.95507077  0.39069552    -0.58700
N2874       N  0.57395997  0.50608332  0.33311524    -0.05600
N2875       N  0.59613017  0.51946976  0.32145259    -0.61200
C2876       C  0.61066024  0.99387552  0.31256768     0.95500
C2877       C  0.59896710  0.98078897  0.40139012     0.95300
N2878       N  0.98517954  0.55392838  0.37978965    -0.06800
N2879       N  0.97369402  0.57179360  0.39433598    -0.59300
N2880       N  0.51778524  0.55952763  0.33509239    -0.04900
N2881       N  0.52874949  0.58145766  0.32243838    -0.60600
N2882       N  0.98559449  0.55869703  0.33502419    -0.06900
N2883       N  0.97407675  0.57984192  0.32227166    -0.59600
N2884       N  0.51731039  0.55422692  0.37977522    -0.04600
N2885       N  0.52825691  0.57228516  0.39428643    -0.60700
Mn2886     Mn  0.54585045  0.53062469  0.35646704     1.18400
C2887       C  0.00079302  0.58299591  0.40340688     0.97600
C2888       C  0.00123238  0.59353055  0.31434651     0.98300
N2889       N  0.51884900  0.91408948  0.37441453    -0.06900
N2890       N  0.53022412  0.89701820  0.38927878    -0.63200
N2891       N  0.98740257  0.91859389  0.32933808    -0.05700
N2892       N  0.97701125  0.90054217  0.31464352    -0.63900
N2893       N  0.51954406  0.91953729  0.32926771    -0.06400
N2894       N  0.53148136  0.90221173  0.31463834    -0.63400
N2895       N  0.98671793  0.91378415  0.37466360    -0.05300
N2896       N  0.97567369  0.89653556  0.38968889    -0.64100
Mn2897     Mn  0.54684657  0.94327929  0.35272923     1.10700
C2898       C  0.00303422  0.88623865  0.39879813     0.98800
C2899       C  0.00479209  0.89040106  0.30550979     0.98900
N2900       N  0.93124878  0.50365149  0.33311963    -0.06400
N2901       N  0.91117860  0.51624211  0.32014906    -0.61800
N2902       N  0.93134719  0.96685723  0.37698714    -0.05700
N2903       N  0.91312647  0.95424249  0.39121751    -0.58500
N2904       N  0.93128023  0.49884451  0.37802938    -0.07000
N2905       N  0.91299219  0.50855264  0.39291096    -0.61300
N2906       N  0.93108992  0.97160794  0.33200663    -0.06000
N2907       N  0.91072181  0.96176330  0.31830371    -0.58500
Mn2908     Mn  0.95769526  0.52934657  0.35646873     1.20200
Mn2909     Mn  0.95842011  0.94180141  0.35315363     1.10100
Cl2910     Cl  0.00214610  0.98631821  0.35457667    -0.86500
C2911       C  0.89885408  0.98986162  0.31086109     0.95900
C2912       C  0.90176284  0.98057883  0.40114340     0.95600
N2913       N  0.00039382  0.68790064  0.50063876    -0.37100
N2914       N  0.99812092  0.73696840  0.53080914    -0.57700
N2915       N  0.99992819  0.78826620  0.50086574    -0.37100
N2916       N  0.00553613  0.73887392  0.47072347    -0.57700
C2917       C  0.00499752  0.66895005  0.51661030     0.26500
C2918       C  0.00839646  0.66990334  0.48476583     0.26500
C2919       C  0.00497690  0.80611964  0.51720950     0.26500
C2920       C  0.00833110  0.80709742  0.48528762     0.26500
C2921       C  0.99252719  0.71038020  0.54211459     0.35100
C2922       C  0.99228681  0.76319395  0.54222339     0.35100
C2923       C  0.00147274  0.71259037  0.45907610     0.35100
C2924       C  0.00176194  0.76538439  0.45918187     0.35100
C2925       C  0.01585989  0.63847252  0.51078663    -0.22400
C2926       C  0.01792298  0.63904492  0.49067744    -0.22400
C2927       C  0.01636574  0.83682403  0.51194197    -0.22400
C2928       C  0.01846763  0.83743587  0.49178931    -0.22400
C2929       C  0.98338234  0.71973911  0.56083574    -0.23500
C2930       C  0.98321719  0.75317283  0.56091614    -0.23500
C2931       C  0.99561007  0.72244352  0.44001629    -0.23500
C2932       C  0.99580434  0.75587107  0.44008099    -0.23500
C2933       C  0.99791567  0.67783231  0.53619034    -0.18800
C2934       C  0.00501910  0.67981054  0.46506924    -0.18800
C2935       C  0.00558629  0.79805983  0.46536803    -0.18800
C2936       C  0.99801609  0.79597767  0.53665568    -0.18800
H2937       H  0.02136249  0.61782254  0.52004493     0.14100
H2938       H  0.02527624  0.61889880  0.48144685     0.14100
H2939       H  0.02240607  0.85678154  0.52161409     0.14100
H2940       H  0.02647792  0.85789772  0.48292897     0.14100
H2941       H  0.97801936  0.70412113  0.57324246     0.12400
H2942       H  0.97774754  0.76835999  0.57345499     0.12400
H2943       H  0.99194170  0.70714600  0.42732684     0.12400
H2944       H  0.99223325  0.77137987  0.42746113     0.12400
H2945       H  0.98872343  0.71026941  0.50035220     0.25600
H2946       H  0.98806465  0.76590333  0.50032102     0.25600
N2947       N  0.69765372  0.95989164  0.50102508    -0.37100
N2948       N  0.74774814  0.96169634  0.53107324    -0.57700
N2949       N  0.79878184  0.96356655  0.50099601    -0.37100
N2950       N  0.74871617  0.96507715  0.47097725    -0.57700
C2951       C  0.67860166  0.96453312  0.51707459     0.26500
C2952       C  0.67892028  0.96536537  0.48515823     0.26500
C2953       C  0.81707756  0.96857362  0.51711069     0.24500
C2954       C  0.81765852  0.97084871  0.48520987     0.26500
C2955       C  0.72119648  0.95696197  0.54264552     0.35100
C2956       C  0.77408752  0.95767651  0.54258268     0.35100
C2957       C  0.72249931  0.96204703  0.45919975     0.35100
C2958       C  0.77548041  0.96423486  0.45920505     0.35100
C2959       C  0.64708158  0.97202074  0.51132441    -0.22400
C2960       C  0.64722573  0.97234605  0.49120890    -0.22400
C2961       C  0.84824836  0.97845255  0.51148670    -0.22400
C2962       C  0.84862098  0.97985685  0.49135927    -0.22400
C2963       C  0.73068874  0.95002387  0.56161397    -0.23500
C2964       C  0.76419266  0.95040422  0.56157029    -0.23500
C2965       C  0.73271548  0.95973163  0.43983605    -0.23500
C2966       C  0.76618545  0.96093271  0.43985527    -0.23500
C2967       C  0.68849361  0.96131062  0.53677712    -0.18800
C2968       C  0.68938609  0.96382103  0.46535451    -0.18800
C2969       C  0.80817697  0.96841620  0.46537951    -0.18800
C2970       C  0.80684727  0.96330576  0.53671586    -0.18800
H2971       H  0.62608225  0.97672683  0.52064084     0.14100
H2972       H  0.62632254  0.97738057  0.48211262     0.14100
H2973       H  0.86869593  0.98390192  0.52089278     0.14100
H2974       H  0.86939409  0.98664781  0.48228978     0.14100
H2975       H  0.71508910  0.94564585  0.57423660     0.12400
H2976       H  0.77950382  0.94641780  0.57417836     0.12400
H2977       H  0.71765497  0.95784390  0.42694832     0.12400
H2978       H  0.78185038  0.96006979  0.42701395     0.12400
H2979       H  0.72125710  0.95087640  0.50085468     0.25600
H2980       H  0.77590124  0.95271000  0.50073589     0.25600
C2981       C  0.99461877  0.71064552  0.26521818     0.86000
C2982       C  0.52207806  0.71162638  0.24982627    -0.54300
C2983       C  0.52061843  0.73720932  0.23710543     0.08900
C2984       C  0.99183987  0.76046753  0.24117610     0.19800
C2985       C  0.99715854  0.74440448  0.27528607    -0.55000
C2986       C  0.99581289  0.77025703  0.26270801     0.09000
C2987       C  0.96252544  0.71293585  0.25371163    -0.54500
C2988       C  0.96085708  0.73877965  0.24111761     0.09600
H2989       H  0.54202401  0.69423173  0.24969297     0.14100
H2990       H  0.99086772  0.78162934  0.23104573    -0.00200
H2991       H  0.99947157  0.74867809  0.29081383     0.14400
H2992       H  0.94284009  0.69526161  0.25528997     0.14200
C2993       C  0.97570361  0.85427852  0.28244926    -0.20800
C2994       C  0.00530518  0.86276130  0.29138087    -0.07400
C2995       C  0.53322699  0.84301057  0.28779705     0.13500
C2996       C  0.52962450  0.81388450  0.27719517    -0.20900
C2997       C  0.99926987  0.80425443  0.26977300    -0.07400
C2998       C  0.97230129  0.82543981  0.27170839     0.13500
C2999       C  0.93910406  0.81797000  0.26355321    -0.24200
H3000       H  0.95445658  0.86967428  0.28448481     0.14800
H3001       H  0.55036170  0.79774201  0.27536897     0.14800
C3002       C  0.56663205  0.85137535  0.29553229    -0.24200
H3003       H  0.93162836  0.83792379  0.25357837     0.05000
H3004       H  0.92097343  0.81591445  0.27569113     0.08200
H3005       H  0.93859103  0.79517046  0.25515947     0.08200
H3006       H  0.56625125  0.85111138  0.31177214     0.08200
H3007       H  0.57435968  0.87572537  0.29004752     0.08200
H3008       H  0.58539865  0.83355834  0.29067404     0.05000
C3009       C  0.99341777  0.62038267  0.28240883    -0.20800
C3010       C  0.00042648  0.62326664  0.30225806    -0.07400
C3011       C  0.50591014  0.65426485  0.31031363     0.13500
C3012       C  0.50405238  0.68193670  0.29825335    -0.20900
C3013       C  0.99668337  0.67972314  0.27807677    -0.07400
C3014       C  0.99217038  0.64777972  0.27009438     0.13500
C3015       C  0.98626627  0.64062148  0.24871421    -0.24200
H3016       H  0.98939331  0.59629560  0.27633569     0.14800
H3017       H  0.50904745  0.70501629  0.30501449     0.14800
C3018       C  0.51321436  0.65823704  0.33178066    -0.24200
H3019       H  0.00532789  0.62361817  0.24325338     0.05000
H3020       H  0.98704679  0.66202369  0.23897930     0.08200
H3021       H  0.96197348  0.62879861  0.24710347     0.08200
H3022       H  0.53610060  0.64520272  0.33541320     0.08200
H3023       H  0.49275631  0.64804487  0.34069549     0.08200
H3024       H  0.51639677  0.68423326  0.33587588     0.05000
C3025       C  0.97474240  0.63935520  0.44529402    -0.20800
C3026       C  0.00459510  0.65418000  0.44976503    -0.07400
C3027       C  0.53312261  0.64518522  0.43946521     0.13500
C3028       C  0.53103685  0.62174330  0.42460587    -0.20900
C3029       C  0.00098742  0.60712576  0.41968066    -0.07400
C3030       C  0.97242943  0.61597333  0.43038814     0.13500
C3031       C  0.93945446  0.60090880  0.42655029    -0.24200
H3032       H  0.95304765  0.64646989  0.45343928     0.14800
H3033       H  0.55308817  0.61511252  0.41668408     0.14800
C3034       C  0.56568247  0.66037413  0.44420264    -0.24200
H3035       H  0.92046863  0.60987846  0.43692826     0.05000
H3036       H  0.94090093  0.57405677  0.42829645     0.08200
H3037       H  0.93129138  0.60720070  0.41157589     0.08200
H3038       H  0.57181372  0.65538482  0.45971134     0.08200
H3039       H  0.56461154  0.68712589  0.44187093     0.08200
H3040       H  0.58563421  0.65049607  0.43483365     0.05000
C3041       C  0.53274452  0.84959501  0.42162992    -0.20800
C3042       C  0.00361683  0.86593007  0.41697907    -0.07400
C3043       C  0.97631964  0.86259037  0.42986695     0.13500
C3044       C  0.97831996  0.84146757  0.44606510    -0.20900
C3045       C  0.00686326  0.82392792  0.44996746    -0.07400
C3046       C  0.53479147  0.82890429  0.43796772     0.13500
C3047       C  0.56701590  0.81262872  0.44194906    -0.24200
H3048       H  0.55410535  0.85250483  0.41227079     0.14800
H3049       H  0.95714355  0.83786523  0.45549214     0.14800
C3050       C  0.94510199  0.88133964  0.42698685    -0.24200
H3051       H  0.58623262  0.83153244  0.44383800     0.05000
H3052       H  0.57382161  0.79684617  0.42938456     0.08200
H3053       H  0.56647075  0.79743475  0.45537500     0.08200
H3054       H  0.93304804  0.87348452  0.41329636     0.08200
H3055       H  0.95049838  0.90787148  0.42639339     0.08200
H3056       H  0.92739918  0.87719531  0.43917452     0.05000
C3057       C  0.63081591  0.94579243  0.42388726    -0.20800
C3058       C  0.62070365  0.97741454  0.41863507    -0.07400
C3059       C  0.63203445  0.00433210  0.42974323     0.13500
C3060       C  0.65375421  0.99888656  0.44517698    -0.20900
C3061       C  0.66434162  0.96746710  0.44989637    -0.07400
C3062       C  0.65248084  0.94052763  0.43933909     0.13500
C3063       C  0.66295373  0.90632271  0.44425606    -0.24200
H3064       H  0.62213600  0.92493210  0.41570879     0.14800
H3065       H  0.66305790  0.01933691  0.45350152     0.14800
C3066       C  0.62188882  0.03889346  0.42554049    -0.24200
H3067       H  0.65110505  0.88801695  0.43465491     0.05000
H3068       H  0.65615200  0.90062126  0.45965343     0.08200
H3069       H  0.68951325  0.40380194  0.44252435     0.08200
H3070       H  0.59489908  0.04108297  0.42676138     0.08200
H3071       H  0.63055884  0.54600373  0.41051398     0.08200
H3072       H  0.63274437  0.05640779  0.43604646     0.05000
C3073       C  0.87415064  0.94841329  0.42755312    -0.20800
C3074       C  0.87873004  0.97873799  0.41824421    -0.07400
C3075       C  0.86076043  0.00601252  0.42529272     0.13500
C3076       C  0.83865591  0.00191084  0.44098752    -0.20900
C3077       C  0.83393619  0.97152448  0.44992376    -0.07400
C3078       C  0.85215119  0.94449096  0.44329292     0.13500
C3079       C  0.84863819  0.91110215  0.45231179    -0.24200
H3080       H  0.88770739  0.92738250  0.42246848     0.14800
H3081       H  0.82400141  0.52246435  0.44591416     0.14800
C3082       C  0.86336161  0.53938931  0.41596899    -0.24200
H3083       H  0.87261612  0.90320772  0.45810405     0.05000
H3084       H  0.84085205  0.39351580  0.44112247     0.08200
H3085       H  0.83062032  0.91026620  0.46451925     0.08200
H3086       H  0.85684605  0.53819925  0.40025085     0.08200
H3087       H  0.88906727  0.04868591  0.41783607     0.08200
H3088       H  0.84674467  0.55725121  0.42308282     0.05000
C3089       C  0.63462486  0.99525168  0.57737146    -0.20800
C3090       C  0.61575699  0.96784018  0.58260761    -0.07400
C3091       C  0.62042320  0.93820429  0.57222161     0.13500
C3092       C  0.64407997  0.93689052  0.55720223    -0.20900
C3093       C  0.66316063  0.96418203  0.55239319    -0.07400
C3094       C  0.65833568  0.99373079  0.56248770     0.13500
C3095       C  0.67819225  0.02368045  0.55751794    -0.24200
H3096       H  0.63122932  0.01798235  0.58516778     0.14800
H3097       H  0.64797503  0.91440143  0.54922096     0.14800
C3098       C  0.60041364  0.90801222  0.57647150    -0.24200
H3099       H  0.67055338  0.54499553  0.56639876     0.05000
H3100       H  0.67457868  0.03026803  0.54192531     0.08200
H3101       H  0.70421100  0.51912796  0.55982086     0.08200
H3102       H  0.57397275  0.91352361  0.57512001     0.08200
H3103       H  0.60640627  0.39894417  0.59190940     0.08200
H3104       H  0.60622252  0.88796901  0.56610455     0.05000
C3105       C  0.87052102  0.94419638  0.57519944    -0.20800
C3106       C  0.87310211  0.97436414  0.58483538    -0.07400
C3107       C  0.85428027  0.50089970  0.57793184     0.13500
C3108       C  0.83373894  0.49652306  0.56183276    -0.20900
C3109       C  0.83138482  0.96657258  0.55244651    -0.07400
C3110       C  0.85016559  0.94002361  0.55899334     0.13500
C3111       C  0.84897319  0.90699495  0.54939963    -0.24200
H3112       H  0.88435775  0.92355048  0.58037525     0.14800
H3113       H  0.81887109  0.51658974  0.55674232     0.14800
C3114       C  0.85466069  0.53380047  0.58772169    -0.24200
H3115       H  0.84069140  0.88847828  0.56024237     0.05000
H3116       H  0.87382248  0.40031445  0.54397970     0.08200
H3117       H  0.83218138  0.90609958  0.53677203     0.08200
H3118       H  0.87936713  0.54487120  0.58643338     0.08200
H3119       H  0.84758748  0.03127509  0.60349656     0.08200
H3120       H  0.83724846  0.55098491  0.58085472     0.05000
C3121       C  0.52261205  0.62000037  0.57710838    -0.20800
C3122       C  0.99392519  0.60147499  0.57996423    -0.07400
C3123       C  0.96645468  0.60810747  0.56803807     0.13500
C3124       C  0.96852632  0.63299578  0.55384966    -0.20900
C3125       C  0.99706261  0.65164478  0.55138116    -0.07400
C3126       C  0.52439588  0.64507584  0.56313321     0.13500
C3127       C  0.55551220  0.66453136  0.56088407    -0.24200
H3128       H  0.54374923  0.61527260  0.58610107     0.14800
H3129       H  0.94770351  0.63813920  0.54466158     0.14800
C3130       C  0.93507980  0.58889637  0.56981601    -0.24200
H3131       H  0.57470308  0.65604524  0.57107139     0.05000
H3132       H  0.55068117  0.69061144  0.56402610     0.08200
H3133       H  0.56509124  0.66213387  0.54570119     0.08200
H3134       H  0.92361779  0.59310654  0.58436623     0.08200
H3135       H  0.94008901  0.56252767  0.56782198     0.08200
H3136       H  0.91705622  0.59627908  0.55860002     0.05000
C3137       C  0.52340367  0.84625025  0.58061183    -0.20800
C3138       C  0.99374886  0.86132167  0.58595236    -0.07400
C3139       C  0.96607933  0.85672022  0.57381357     0.13500
C3140       C  0.96867300  0.83659532  0.55722794    -0.20900
C3141       C  0.99795068  0.82074828  0.55253191    -0.07400
C3142       C  0.52572731  0.82585417  0.56420146     0.13500
C3143       C  0.55762151  0.80921782  0.55951337    -0.24200
H3144       H  0.54482527  0.84975231  0.58958749     0.14800
H3145       H  0.94747023  0.83233174  0.54816404     0.14800
C3146       C  0.93379085  0.87288445  0.57797898    -0.24200
H3147       H  0.57701704  0.81599393  0.57003894     0.05000
H3148       H  0.56605557  0.81632858  0.54461445     0.08200
H3149       H  0.55433019  0.78236645  0.56011704     0.08200
H3150       H  0.93731893  0.89969700  0.57847048     0.08200
H3151       H  0.92351495  0.86397158  0.59209629     0.08200
H3152       H  0.91551403  0.86750787  0.56649017     0.05000
C3153       C  0.58648540  0.72570399  0.19815770    -0.20800
C3154       C  0.60495700  0.75451440  0.20013891    -0.07400
C3155       C  0.59314879  0.77917992  0.21287728     0.13500
C3156       C  0.56470162  0.77336685  0.22415608    -0.20900
C3157       C  0.54743877  0.74386884  0.22281966    -0.07400
C3158       C  0.55770111  0.72030983  0.20904915     0.13500
C3159       C  0.53784293  0.68992569  0.20529192    -0.24200
H3160       H  0.59453471  0.70714014  0.18795308     0.14800
H3161       H  0.55646087  0.79155540  0.23456189     0.14800
C3162       C  0.61067510  0.81127911  0.21515418    -0.24200
H3163       H  0.54799305  0.67563087  0.19286934     0.05000
H3164       H  0.51236159  0.69672045  0.20162759     0.08200
H3165       H  0.53765452  0.67380518  0.21829255     0.08200
H3166       H  0.61065970  0.82472214  0.20104995     0.08200
H3167       H  0.63620350  0.80706658  0.21988488     0.08200
H3168       H  0.59859889  0.82702721  0.22626043     0.05000
C3169       C  0.87294098  0.74870531  0.22298728    -0.20800
C3170       C  0.87831709  0.75431058  0.20299952    -0.07400
C3171       C  0.91071394  0.75563054  0.19570417     0.13500
C3172       C  0.93701571  0.75117612  0.20857605    -0.20900
C3173       C  0.93177482  0.74522952  0.22861137    -0.07400
C3174       C  0.89912583  0.74480735  0.23598223     0.13500
C3175       C  0.89067943  0.74175070  0.25745459    -0.24200
H3176       H  0.84804508  0.74781318  0.22857379     0.14800
H3177       H  0.96183127  0.75154095  0.20286337     0.14800
C3178       C  0.91749351  0.76112540  0.17425664    -0.24200
H3179       H  0.87444377  0.76216316  0.26183693     0.05000
H3180       H  0.91219352  0.74307293  0.26710866     0.08200
H3181       H  0.87760957  0.71838060  0.26013238     0.08200
H3182       H  0.90719697  0.78490670  0.16967909     0.08200
H3183       H  0.90607104  0.74134993  0.16556914     0.08200
H3184       H  0.94413278  0.76137084  0.17094013     0.05000
C3185       C  0.71632983  0.60762331  0.05750869    -0.20800
C3186       C  0.74614281  0.59355885  0.05203738    -0.07400
C3187       C  0.77515997  0.60392750  0.06120228     0.13500
C3188       C  0.77348149  0.62743719  0.07605562    -0.20900
C3189       C  0.74361045  0.64147031  0.08185837    -0.07400
C3190       C  0.71461622  0.63162707  0.07212650     0.13500
C3191       C  0.68190035  0.64682002  0.07639675    -0.24200
H3192       H  0.69427039  0.59982589  0.05015392     0.14800
H3193       H  0.79593460  0.63485906  0.08310271     0.14800
C3194       C  0.80833651  0.59100590  0.05551360    -0.24200
H3195       H  0.66252580  0.63737063  0.06660588     0.05000
H3196       H  0.68377649  0.67350844  0.07401494     0.08200
H3197       H  0.67409869  0.64142301  0.09165910     0.08200
H3198       H  0.80737836  0.57278416  0.04357739     0.08200
H3199       H  0.81975351  0.57930470  0.06839970     0.08200
H3200       H  0.82412841  0.61150266  0.05048601     0.05000
C3201       C  0.72189507  0.90538204  0.05475949    -0.20800
C3202       C  0.74984730  0.92433531  0.05115935    -0.07400
C3203       C  0.77738616  0.92060412  0.06320015     0.13500
C3204       C  0.77543162  0.89988228  0.07954760    -0.20900
C3205       C  0.74666265  0.88237765  0.08404890    -0.07400
C3206       C  0.72001926  0.88413418  0.07090399     0.13500
C3207       C  0.68979750  0.86338872  0.07339858    -0.24200
H3208       H  0.70114924  0.90785926  0.04511838     0.14800
H3209       H  0.79636519  0.89790944  0.08907365     0.14800
C3210       C  0.80876727  0.93859321  0.05876565    -0.24200
H3211       H  0.67285240  0.86624841  0.06091660     0.05000
H3212       H  0.67627043  0.87054801  0.08685169     0.08200
H3213       H  0.69672052  0.83727484  0.07419733     0.08200
H3214       H  0.80467071  0.96528439  0.05942522     0.08200
H3215       H  0.81762237  0.93198878  0.04388313     0.08200
H3216       H  0.82820944  0.93238748  0.06936311     0.05000
C3217       C  0.72265966  0.63573212  0.92951670    -0.20800
C3218       C  0.75259545  0.64407104  0.92044108    -0.07400
C3219       C  0.78155514  0.62815376  0.92674878     0.13500
C3220       C  0.77940258  0.60408653  0.94137092    -0.20900
C3221       C  0.74941595  0.59568312  0.95003331    -0.07400
C3222       C  0.72078199  0.61182628  0.94421274     0.13500
C3223       C  0.68821849  0.60352890  0.95343931    -0.24200
H3224       H  0.70044023  0.64781438  0.92503578     0.14800
H3225       H  0.80125444  0.59158213  0.94611010     0.14800
C3226       C  0.81489090  0.63580992  0.91826788    -0.24200
H3227       H  0.66817856  0.61842700  0.94726274     0.05000
H3228       H  0.68911445  0.60807867  0.96943995     0.08200
H3229       H  0.68238332  0.57744991  0.95086066     0.08200
H3230       H  0.82098166  0.66186009  0.92075334     0.08200
H3231       H  0.81540983  0.63021694  0.90238017     0.08200
H3232       H  0.83437136  0.62109131  0.92520035     0.05000
C3233       C  0.72890306  0.88556308  0.92750980    -0.20800
C3234       C  0.75562925  0.88725487  0.91443842    -0.07400
C3235       C  0.78190346  0.90870652  0.91868623     0.13500
C3236       C  0.78045956  0.92795585  0.93565766    -0.20900
C3237       C  0.75338775  0.92674325  0.94838415    -0.07400
C3238       C  0.72749764  0.90496832  0.94442326     0.13500
C3239       C  0.69794256  0.90289336  0.95769830    -0.24200
H3240       H  0.70882206  0.86910030  0.92442315     0.14800
H3241       H  0.80003188  0.94505096  0.93870378     0.14800
C3242       C  0.81073605  0.91293546  0.90499948    -0.24200
H3243       H  0.67951580  0.88534446  0.95212057     0.05000
H3244       H  0.68620558  0.92717113  0.95885432     0.08200
H3245       H  0.70530061  0.89464617  0.97247720     0.08200
H3246       H  0.80212553  0.92017740  0.89026237     0.08200
H3247       H  0.82471518  0.88992148  0.90397548     0.08200
H3248       H  0.82783760  0.93210577  0.91016640     0.05000
C3249       C  0.98194815  0.64487761  0.73000086    -0.20800
C3250       C  0.00281221  0.67166394  0.72573729    -0.07400
C3251       C  0.52483663  0.66820767  0.70947413     0.13500
C3252       C  0.52263909  0.64070663  0.69727287    -0.20900
C3253       C  0.00026743  0.61556247  0.70097318    -0.07400
C3254       C  0.98050728  0.61710753  0.71794273     0.13500
C3255       C  0.95891398  0.58883462  0.72389724    -0.24200
H3256       H  0.96711092  0.64455348  0.74308184     0.14800
H3257       H  0.53869583  0.63876655  0.68461688     0.14800
C3258       C  0.55207125  0.69211831  0.70498406    -0.24200
H3259       H  0.94645944  0.59320780  0.73816145     0.05000
H3260       H  0.97389875  0.56645707  0.72534603     0.08200
H3261       H  0.93973361  0.58479279  0.71278617     0.08200
H3262       H  0.56940582  0.69247049  0.71724976     0.08200
H3263       H  0.54288557  0.71686165  0.70197279     0.08200
H3264       H  0.56644838  0.68487536  0.69183358     0.05000
C3265       C  0.52453973  0.84247296  0.71420444    -0.20800
C3266       C  0.99395926  0.85609409  0.70977452    -0.07400
C3267       C  0.96524004  0.84008986  0.71682461     0.13500
C3268       C  0.96801027  0.80965476  0.72623647    -0.20900
C3269       C  0.99857623  0.79543287  0.72944323    -0.07400
C3270       C  0.52714233  0.81251157  0.72391783     0.13500
C3271       C  0.56046458  0.79861629  0.72762152    -0.24200
H3272       H  0.54674259  0.85477213  0.70949730     0.14800
H3273       H  0.94616089  0.79654481  0.73073205     0.14800
C3274       C  0.93163135  0.85455031  0.71466838    -0.24200
H3275       H  0.58030500  0.81515388  0.72245902     0.05000
H3276       H  0.56291627  0.77522578  0.71965710     0.08200
H3277       H  0.56369387  0.79464690  0.74354439     0.08200
H3278       H  0.92476489  0.85546336  0.69901714     0.08200
H3279       H  0.93115827  0.87942509  0.72105260     0.08200
H3280       H  0.91270196  0.83978951  0.72241716     0.05000
C3281       C  0.55912701  0.75599619  0.79251665    -0.20800
C3282       C  0.56474023  0.74367940  0.77357643    -0.07400
C3283       C  0.59761539  0.73936398  0.76713682     0.13500
C3284       C  0.62331749  0.74452742  0.78022722    -0.20900
C3285       C  0.61752931  0.75617338  0.79912649    -0.07400
C3286       C  0.58517240  0.76273551  0.80524934     0.13500
C3287       C  0.57811119  0.77599462  0.82537926    -0.24200
H3288       H  0.53422997  0.75964233  0.79758892     0.14800
H3289       H  0.64828442  0.74007734  0.77547467     0.14800
C3290       C  0.60701689  0.73095663  0.74642254    -0.24200
H3291       H  0.55147783  0.77929329  0.82796417     0.05000
H3292       H  0.59025079  0.80005700  0.82708041     0.08200
H3293       H  0.58746477  0.75896450  0.83663864     0.08200
H3294       H  0.58634268  0.73296712  0.73632734     0.08200
H3295       H  0.61718268  0.70592670  0.74584761     0.08200
H3296       H  0.62583299  0.74842840  0.74099171     0.05000
C3297       C  0.91144280  0.72668229  0.80547243    -0.20800
C3298       C  0.89145325  0.75349038  0.80107855    -0.07400
C3299       C  0.90203826  0.77588442  0.78652002     0.13500
C3300       C  0.93112027  0.76967142  0.77600395    -0.20900
C3301       C  0.94967968  0.74163127  0.77953600    -0.07400
C3302       C  0.94049256  0.72065283  0.79503684     0.13500
C3303       C  0.96166169  0.69234177  0.80093600    -0.24200
H3304       H  0.90421482  0.71009419  0.81709762     0.14800
H3305       H  0.93865974  0.78607332  0.76439540     0.14800
C3306       C  0.88219960  0.80546581  0.78130940    -0.24200
H3307       H  0.95176789  0.67969072  0.81411007     0.05000
H3308       H  0.98660742  0.70129734  0.80438419     0.08200
H3309       H  0.96322181  0.67415405  0.78899952     0.08200
H3310       H  0.88054072  0.82210024  0.79406496     0.08200
H3311       H  0.85727233  0.79790433  0.77684103     0.08200
H3312       H  0.89345573  0.81936685  0.76899584     0.05000
C3313       C  0.81984144  0.97701350  0.72825151    -0.20800
C3314       C  0.80082457  0.00489928  0.72498855    -0.07400
C3315       C  0.81011108  0.52694811  0.71001864     0.13500
C3316       C  0.83884153  0.52118873  0.69921775    -0.20900
C3317       C  0.85892832  0.99393441  0.70290712    -0.07400
C3318       C  0.84892073  0.97133205  0.71751488     0.13500
C3319       C  0.86931888  0.94198264  0.72243796    -0.24200
H3320       H  0.81246725  0.96013408  0.73966135     0.14800
H3321       H  0.84589299  0.53831371  0.68784037     0.14800
C3322       C  0.78979464  0.55638392  0.70519089    -0.24200
H3323       H  0.85875282  0.92802017  0.73493572     0.05000
H3324       H  0.89417940  0.45001549  0.72650388     0.08200
H3325       H  0.87063984  0.92530744  0.70969117     0.08200
H3326       H  0.79027815  0.57387030  0.71749720     0.08200
H3327       H  0.76440383  0.04867565  0.70227941     0.08200
H3328       H  0.79926184  0.56934880  0.69202071     0.05000
C3329       C  0.68858424  0.99490568  0.70678551    -0.20800
C3330       C  0.68337642  0.00356052  0.72646773    -0.07400
C3331       C  0.65049518  0.50544314  0.73377505     0.13500
C3332       C  0.62432521  0.50059314  0.72095309    -0.20900
C3333       C  0.62982686  0.99268523  0.70122750    -0.07400
C3334       C  0.66214968  0.98959335  0.69406818     0.13500
C3335       C  0.66862851  0.98150017  0.67289978    -0.24200
H3336       H  0.71340660  0.99333525  0.70117901     0.14800
H3337       H  0.59943159  0.50263395  0.72642232     0.14800
C3338       C  0.64170495  0.51138899  0.75496205    -0.24200
H3339       H  0.69522680  0.98008698  0.66961162     0.05000
H3340       H  0.65768894  0.50095694  0.66344765     0.08200
H3341       H  0.65739268  0.95758738  0.66933469     0.08200
H3342       H  0.62826708  0.53474387  0.75630881     0.08200
H3343       H  0.66307056  0.01217988  0.76470724     0.08200
H3344       H  0.62567190  0.49132358  0.76034307     0.05000
C3345       C  0.73349727  0.57039126  0.79677924    -0.20800
C3346       C  0.74188951  0.57251058  0.77668235    -0.07400
C3347       C  0.74857062  0.60422611  0.76894200     0.13500
C3348       C  0.75155066  0.63095221  0.78171533    -0.20900
C3349       C  0.74531002  0.62783912  0.80178299    -0.07400
C3350       C  0.73511384  0.59744985  0.80929354     0.13500
C3351       C  0.72617592  0.59337761  0.83062454    -0.24200
H3352       H  0.72453327  0.54788587  0.80297971     0.14800
H3353       H  0.75766458  0.65478698  0.77582056     0.14800
C3354       C  0.75173213  0.61165631  0.74737320    -0.24200
H3355       H  0.71950082  0.56778594  0.83423363     0.05000
H3356       H  0.70488905  0.60895225  0.83433498     0.08200
H3357       H  0.74723760  0.60045928  0.83984941     0.08200
H3358       H  0.73459293  0.63153951  0.74352466     0.08200
H3359       H  0.74548506  0.59096024  0.73781483     0.08200
H3360       H  0.77705856  0.61983091  0.74396325     0.05000
C3361       C  0.77627591  0.93724402  0.77645415    -0.20800
C3362       C  0.74534781  0.94838859  0.77109749    -0.07400
C3363       C  0.71750734  0.92937131  0.77540140     0.13500
C3364       C  0.72117228  0.89967936  0.78523326    -0.20900
C3365       C  0.75192555  0.88904735  0.79167066    -0.07400
C3366       C  0.78009887  0.90786369  0.78673336     0.13500
C3367       C  0.81414338  0.89827057  0.79268721    -0.24200
H3368       H  0.79742434  0.95245595  0.77337183     0.14800
H3369       H  0.69949915  0.88548043  0.78873526     0.14800
C3370       C  0.68375186  0.94124489  0.77070699    -0.24200
H3371       H  0.83288933  0.91554981  0.78693932     0.05000
H3372       H  0.82007422  0.87376996  0.78679959     0.08200
H3373       H  0.81608337  0.89834021  0.80887672     0.08200
H3374       H  0.68184848  0.94605578  0.75477676     0.08200
H3375       H  0.67891681  0.96389593  0.77904383     0.08200
H3376       H  0.66461456  0.92317099  0.77485110     0.05000
C3377       C  0.62213871  0.79882336  0.07351938    -0.20800
C3378       C  0.62630749  0.76822069  0.08243868    -0.07400
C3379       C  0.60913443  0.74093110  0.07481939     0.13500
C3380       C  0.58859605  0.74518208  0.05867903    -0.20900
C3381       C  0.58393924  0.77593968  0.05031393    -0.07400
C3382       C  0.60096838  0.80310472  0.05773789     0.13500
C3383       C  0.59647451  0.83708340  0.04982528    -0.24200
H3384       H  0.63478105  0.81994521  0.07922666     0.14800
H3385       H  0.57494767  0.72462464  0.05298596     0.14800
C3386       C  0.61067566  0.70760251  0.08401599    -0.24200
H3387       H  0.62034171  0.84672367  0.04450623     0.05000
H3388       H  0.58711424  0.85314945  0.06166484     0.08200
H3389       H  0.57906017  0.83817639  0.03751639     0.08200
H3390       H  0.60211196  0.70881233  0.09946110     0.08200
H3391       H  0.63601378  0.69842048  0.08338126     0.08200
H3392       H  0.59500789  0.68965335  0.07630984     0.05000
C3393       C  0.89748953  0.80498275  0.05815806    -0.20800
C3394       C  0.91485570  0.77706553  0.05269588    -0.07400
C3395       C  0.90907284  0.74745111  0.06270972     0.13500
C3396       C  0.88567593  0.74642299  0.07781308    -0.20900
C3397       C  0.86833295  0.77438723  0.08356632    -0.07400
C3398       C  0.87453314  0.80424648  0.07357897     0.13500
C3399       C  0.85725419  0.83550668  0.07882847    -0.24200
H3400       H  0.90239173  0.82762432  0.05045736     0.14800
H3401       H  0.88144412  0.72353026  0.08537401     0.14800
C3402       C  0.92735831  0.71657641  0.05797540    -0.24200
H3403       H  0.86433635  0.85582049  0.06887579     0.05000
H3404       H  0.86381955  0.84306468  0.09388118     0.08200
H3405       H  0.83038515  0.83214201  0.07773571     0.08200
H3406       H  0.94111352  0.70855575  0.07105201     0.08200
H3407       H  0.94501043  0.71946619  0.04569073     0.08200
H3408       H  0.90970804  0.69716909  0.05391234     0.05000
C3409       C  0.58422897  0.75354319  0.93822549    -0.20800
C3410       C  0.58198726  0.78329019  0.94810608    -0.07400
C3411       C  0.60305957  0.80922613  0.94281138     0.13500
C3412       C  0.62569459  0.80473934  0.92749904    -0.20900
C3413       C  0.62809079  0.77485699  0.91750789    -0.07400
C3414       C  0.60697298  0.74883144  0.92304881     0.13500
C3415       C  0.60738015  0.71620262  0.91292386    -0.24200
H3416       H  0.56791937  0.73383275  0.94249823     0.14800
H3417       H  0.64175241  0.82477809  0.92344679     0.14800
C3418       C  0.60222155  0.84182475  0.95292886    -0.24200
H3419       H  0.58813469  0.69956639  0.91875914     0.05000
H3420       H  0.63124775  0.70408202  0.91522250     0.08200
H3421       H  0.60288211  0.71946329  0.89704246     0.08200
H3422       H  0.62638581  0.84681821  0.95958870     0.08200
H3423       H  0.58338387  0.84309043  0.96466640     0.08200
H3424       H  0.59691785  0.86122051  0.94207921     0.05000
C3425       C  0.88563265  0.74586099  0.92505108    -0.20800
C3426       C  0.86943018  0.77390533  0.91841888    -0.07400
C3427       C  0.87466936  0.80389223  0.92839554     0.13500
C3428       C  0.89641116  0.80494769  0.94418035    -0.20900
C3429       C  0.91343726  0.77720285  0.95008312    -0.07400
C3430       C  0.90782618  0.74725580  0.94057849     0.13500
C3431       C  0.92573917  0.71692258  0.94662851    -0.24200
H3432       H  0.88172048  0.72282345  0.91768892     0.14800
H3433       H  0.90097649  0.82778725  0.95165128     0.14800
C3434       C  0.85781269  0.83504694  0.92267739    -0.24200
H3435       H  0.91842749  0.69549123  0.93774884     0.05000
H3436       H  0.92029574  0.71139523  0.96223315     0.08200
H3437       H  0.95247865  0.72062338  0.94470252     0.08200
H3438       H  0.83088597  0.83152454  0.92308249     0.08200
H3439       H  0.86592262  0.84266441  0.90781666     0.08200
H3440       H  0.86373753  0.85538515  0.93277597     0.05000
C3441       C  0.87512465  0.00081531  0.27847269    -0.20800
C3442       C  0.87024795  0.99162814  0.29798008    -0.07400
C3443       C  0.83819785  0.98611348  0.30511373     0.13500
C3444       C  0.81151433  0.99088091  0.29262036    -0.20900
C3445       C  0.81621487  0.00125010  0.27323133    -0.07400
C3446       C  0.84864842  0.00507973  0.26584767     0.13500
C3447       C  0.85659598  0.01297555  0.24474506    -0.24200
H3448       H  0.89984148  0.00463599  0.27301987     0.14800
H3449       H  0.78693047  0.48808220  0.29827303     0.14800
C3450       C  0.83212012  0.97648882  0.32610986    -0.24200
H3451       H  0.87354106  0.99429651  0.23877998     0.05000
H3452       H  0.86872431  0.53737437  0.24379481     0.08200
H3453       H  0.83492351  0.01300659  0.23517897     0.08200
H3454       H  0.84227504  0.49568857  0.33595717     0.08200
H3455       H  0.84423277  0.95289818  0.32918823     0.08200
H3456       H  0.80574785  0.47390493  0.32939599     0.05000
C3457       C  0.64701252  0.97674214  0.28498526    -0.20800
C3458       C  0.64214682  0.99645465  0.30151928    -0.07400
C3459       C  0.66750631  0.51827348  0.30711535     0.13500
C3460       C  0.69586785  0.52110268  0.29542634    -0.20900
C3461       C  0.69991329  0.00248880  0.27841080    -0.07400
C3462       C  0.67542932  0.97969902  0.27329470     0.13500
C3463       C  0.67836784  0.95972695  0.25496017    -0.24200
H3464       H  0.62792570  0.95981550  0.28077669     0.14800
H3465       H  0.71465758  0.53858706  0.29930266     0.14800
C3466       C  0.66525818  0.53814945  0.32561461    -0.24200
H3467       H  0.65685371  0.94354768  0.25289685     0.05000
H3468       H  0.70043016  0.94415901  0.25570766     0.08200
H3469       H  0.68010153  0.97627273  0.24214900     0.08200
H3470       H  0.66035613  0.02183989  0.33832897     0.08200
H3471       H  0.64547353  0.55642526  0.32443169     0.08200
H3472       H  0.68830725  0.55165892  0.32846176     0.05000
C3473       C  0.72226860  0.61025960  0.20398458    -0.20800
C3474       C  0.74908138  0.63139743  0.20226355    -0.07400
C3475       C  0.77704972  0.62555619  0.21371222     0.13500
C3476       C  0.77782633  0.59818811  0.22596148    -0.20900
C3477       C  0.75131672  0.57617314  0.22758649    -0.07400
C3478       C  0.72275001  0.58289781  0.21636869     0.13500
C3479       C  0.69229513  0.56175276  0.21692226    -0.24200
H3480       H  0.70076197  0.61491855  0.19528398     0.14800
H3481       H  0.80015341  0.59422801  0.23370360     0.14800
C3482       C  0.80632856  0.64815230  0.21344221    -0.24200
H3483       H  0.67402604  0.56983770  0.20603563     0.05000
H3484       H  0.67992738  0.56329838  0.23134531     0.08200
H3485       H  0.69793443  0.53606462  0.21342238     0.08200
H3486       H  0.79845762  0.67345271  0.21671358     0.08200
H3487       H  0.81880896  0.64723420  0.19897323     0.08200
H3488       H  0.82471514  0.64125640  0.22455219     0.05000
C3489       C  0.72520782  0.94890535  0.21375742    -0.20800
C3490       C  0.75158471  0.95356922  0.22642173    -0.07400
C3491       C  0.77522128  0.92873490  0.22821959     0.13500
C3492       C  0.77130999  0.89963292  0.21765604    -0.20900
C3493       C  0.74452036  0.89465710  0.20526436    -0.07400
C3494       C  0.72108157  0.91980728  0.20331785     0.13500
C3495       C  0.69231414  0.91707363  0.18977555    -0.24200
H3496       H  0.70766920  0.96837981  0.21195186     0.14800
H3497       H  0.78963998  0.88073899  0.21885089     0.14800
C3498       C  0.80567326  0.93341669  0.24013532    -0.24200
H3499       H  0.67744686  0.93967278  0.18966933     0.05000
H3500       H  0.67601848  0.89688106  0.19462219     0.08200
H3501       H  0.70102559  0.91272678  0.17456649     0.08200
H3502       H  0.79942379  0.93601085  0.25584751     0.08200
H3503       H  0.81897529  0.95539227  0.23492818     0.08200
H3504       H  0.82250809  0.91235663  0.23874511     0.05000
loop_ 
_geom_bond_atom_site_label_1 
_geom_bond_atom_site_label_2 
_geom_bond_distance 
_geom_bond_site_symmetry_2 
_ccdc_geom_bond_type 
C1            C2   1.546       .  S
C1            C7   1.533       .  S
C1            C5   1.539       .  S
C1          C849   1.543       .  S
C2            H9   1.080       .  S
C2          C879   1.365       .  D
C3            C4   1.545       .  S
C3          C878   1.365       .  D
C3          C817   1.488       .  S
C4            C8   1.546       .  S
C4            C6   1.537       .  S
C4           H10   1.109       .  S
C5          H887   1.087       .  S
C5          C882   1.364   1_545  D
C6          C881   1.364       .  D
C6          C862   1.487       .  S
C7           H12   1.084       .  S
C7          C884   1.362       .  D
C8          C883   1.362       .  D
C8          C833   1.489       .  S
H11         C881   1.087       .  S
N13          C18   1.353       .  A
N13          C17   1.353   1_554  A
N13          H45   1.036       .  S
N14          C22   1.352   1_655  A
N14        C1773   1.352       .  A
N15          C20   1.353   1_556  A
N15          C19   1.352       .  A
N15          H46   1.038   1_556  S
N16          C24   1.351   1_655  A
N16        C1775   1.352       .  A
C17          C25   1.387       .  A
C17          C33   1.417       .  A
C18          C34   1.417       .  A
C18          C26   1.387       .  A
C19          C27   1.387       .  A
C19          C36   1.414       .  A
C20          C35   1.414       .  A
C20          C28   1.387       .  A
C21        N1766   1.352       .  A
C21          C33   1.415       .  A
C21          C29   1.387       .  A
C22          C36   1.413       .  A
C22          C30   1.386       .  A
C23        N1768   1.352       .  A
C23          C31   1.386       .  A
C23          C34   1.414       .  A
C24          C32   1.386       .  A
C24          C35   1.413       .  A
C25          C26   1.376   1_556  A
C25          H37   1.082       .  S
C26          H38   1.082       .  S
C27          C28   1.375   1_556  A
C27          H39   1.082       .  S
C28          H40   1.082       .  S
C29        C1782   1.371       .  A
C29          H41   1.082       .  S
C30        C1781   1.371   1_455  A
C30          H42   1.082       .  S
C31        C1784   1.370       .  A
C31          H43   1.082       .  S
C32        C1783   1.370   1_455  A
C32          H44   1.082       .  S
C33         C801   1.488       .  S
C34         C766   1.486       .  S
C35         C753   1.484       .  S
C36         C782   1.485       .  S
C47          C48   1.534       .  S
C47          C53   1.538       .  S
C47          C51   1.549       .  S
C47         C718   1.546       .  S
C48          H55   1.086       .  S
C48         C925   1.367       .  D
C49          C50   1.547       .  S
C49         C924   1.367       .  D
C49         C702   1.495       .  S
C50          C54   1.546       .  S
C50          C52   1.532       .  S
C50          H56   1.111       .  S
C51         H933   1.083       .  S
C51         C928   1.362   1_545  D
C52         C927   1.362       .  D
C52         C734   1.476       .  S
C53          H58   1.086       .  S
C53         C930   1.367       .  D
C54         C929   1.368       .  D
C54         C686   1.490       .  S
H57         C927   1.083       .  S
C59          C60   1.548       .  S
C59          C63   1.544       .  S
C59        C1817   1.539       .  S
C59         C622   1.554       .  S
C60          H67   1.081       .  S
C60          C61   1.368       .  D
C61        C1814   1.539       .  S
C61         C673   1.487       .  S
C62          C66   1.543       .  S
C62        C1813   1.539   1_455  S
C62        C1816   1.534       .  S
C62          H68   1.111       .  S
C63        H1821   1.085       .  S
C63          C64   1.366       .  D
C64        C1814   1.533       .  S
C64         C641   1.484       .  S
C65        C1811   1.539       .  S
C65          H70   1.086       .  S
C65          C66   1.369       .  D
C66         C654   1.498       .  S
H69        C1815   1.085       .  S
N71          C76   1.354       .  A
N71          C75   1.354   1_554  A
N71         H103   1.037       .  S
N72          C80   1.353       .  A
N72         C955   1.352   1_545  A
N73          C78   1.353       .  A
N73          C77   1.353   1_554  A
N73         H104   1.038       .  S
N74          C82   1.353       .  A
N74         C957   1.352   1_545  A
C75          C83   1.387       .  A
C75          C91   1.417       .  A
C76          C92   1.417       .  A
C76          C84   1.387       .  A
C77          C85   1.387       .  A
C77          C94   1.414       .  A
C78          C93   1.415       .  A
C78          C86   1.387       .  A
C79         N948   1.352       .  A
C79          C91   1.416       .  A
C79          C87   1.387       .  A
C80          C94   1.413       .  A
C80          C88   1.385       .  A
C81         N950   1.352       .  A
C81          C89   1.387       .  A
C81          C92   1.417       .  A
C82          C90   1.386       .  A
C82          C93   1.415       .  A
C83          C84   1.378   1_556  A
C83          H95   1.082       .  S
C84          H96   1.082       .  S
C85          C86   1.375   1_556  A
C85          H97   1.082       .  S
C86          H98   1.082       .  S
C87         C964   1.371       .  A
C87          H99   1.082       .  S
C88         C963   1.372   1_545  A
C88         H100   1.082       .  S
C89         C966   1.372       .  A
C89         H101   1.082       .  S
C90         C965   1.372   1_545  A
C90         H102   1.082       .  S
C91         C609   1.492       .  S
C92         C574   1.490       .  S
C93         C558   1.488       .  S
C94         C593   1.489       .  S
N105        N106   1.322       .  A
N105        N111   1.314       .  A
N105       Mn134   2.204       .  S
N106        C113   1.355       .  A
N107        N109   1.315       .  A
N107        N108   1.319       .  A
N107       Mn123   2.197       .  S
N108        C114   1.353       .  A
N109        N110   1.318       .  A
N109       Mn134   2.204       .  S
N110        C114   1.355       .  A
N111        N112   1.320       .  A
N111       Mn123   2.200       .  S
N112        C113   1.353       .  A
C113        C606   1.488       .  S
C114        C737   1.489       .  S
N115        N121   1.316       .  A
N115        N116   1.319       .  A
N115       Mn145   2.205       .  S
N116        C124   1.354       .  A
N117        N118   1.318       .  A
N117        N119   1.315       .  A
N117       Mn123   2.190       .  S
N118        C125   1.351       .  A
N119        N120   1.323       .  A
N119       Mn145   2.221       .  S
N120        C125   1.359       .  A
N121        N122   1.323       .  A
N121       Mn123   2.210       .  S
N122        C124   1.356       .  A
Mn123      Cl147   2.551       .  S
C124        C670   1.490       .  S
C125        C798   1.492       .  S
N126        N127   1.323       .  A
N126        N132   1.317       .  A
N126       Mn134   2.211       .  S
N127        C135   1.354       .  A
N128        N130   1.314       .  A
N128        N129   1.318       .  A
N128       Mn146   2.201       .  S
N129        C136   1.353       .  A
N130        N131   1.321       .  A
N130       Mn134   2.196       .  S
N131        C136   1.354       .  A
N132        N133   1.320       .  A
N132       Mn146   2.207       .  S
N133        C135   1.351       .  A
Mn134      Cl147   2.552       .  S
C135        C657   1.476       .  S
C136        C785   1.485       .  S
N137        N138   1.318       .  A
N137        N143   1.313       .  A
N137       Mn145   2.193       .  S
N138        C148   1.351       .  A
N139        N140   1.320       .  A
N139        N141   1.318       .  A
N139       Mn146   2.201       .  S
N140        C149   1.351       .  A
N141        N142   1.324       .  A
N141       Mn145   2.231       .  S
N142        C149   1.357       .  A
N143        N144   1.323       .  A
N143       Mn146   2.209       .  S
N144        C148   1.358       .  A
Mn145      Cl147   2.547       .  S
Mn146      Cl147   2.545       .  S
C148        C590   1.495       .  S
C149        C721   1.480       .  S
N150        N151   1.320       .  A
N150        N156   1.317       .  A
N150       Mn179   2.212       .  S
N151        C158   1.354       .  A
N152        N154   1.315       .  A
N152        N153   1.321       .  A
N152       Mn168   2.204       .  S
N153        C159   1.354       .  A
N154        N155   1.321       .  A
N154       Mn179   2.207       .  S
N155        C159   1.354       .  A
N156        N157   1.320       .  A
N156       Mn168   2.205       .  S
N157        C158   1.354       .  A
C158        C865   1.487       .  S
C159        C577   1.491       .  S
N160        N166   1.314       .  A
N160        N161   1.322       .  A
N160       Mn190   2.205       .  S
N161        C169   1.357       .  A
N162        N163   1.325       .  A
N162        N164   1.317       .  A
N162       Mn168   2.224       .  S
N163        C170   1.357       .  A
N164        N165   1.321       .  A
N164       Mn190   2.208       .  S
N165        C170   1.351       .  A
N166        N167   1.318       .  A
N166       Mn168   2.192       .  S
N167        C169   1.351       .  A
Mn168      Cl192   2.550       .  S
C169        C769   1.489       .  S
C170        C542   1.482       .  S
N171        N172   1.321       .  A
N171        N177   1.314       .  A
N171       Mn179   2.207       .  S
N172        C180   1.356       .  A
N173        N175   1.316       .  A
N173        N174   1.319       .  A
N173       Mn191   2.205       .  S
N174        C181   1.354       .  A
N175        N176   1.324       .  A
N175       Mn179   2.218       .  S
N176        C181   1.357       .  A
N177        N178   1.319       .  A
N177       Mn191   2.197       .  S
N178        C180   1.353       .  A
Mn179      Cl192   2.551       .  S
C180        C750   1.490       .  S
C181        C526   1.494       .  S
N182        N183   1.315       .  A
N182        N188   1.316       .  A
N182       Mn190   2.191       .  S
N183        C193   1.349       .  A
N184        N185   1.319       .  A
N184        N186   1.314       .  A
N184       Mn191   2.193       .  S
N185        C194   1.352       .  A
N186        N187   1.322       .  A
N186       Mn190   2.208       .  S
N187        C194   1.357       .  A
N188        N189   1.322       .  A
N188       Mn191   2.208       .  S
N189        C193   1.357       .  A
Mn190      Cl192   2.547       .  S
Mn191      Cl192   2.549       .  S
C193        C846   1.483       .  S
C194        C561   1.494       .  S
N195        N196   1.322       .  A
N195       N1953   1.316       .  A
N195       Mn224   2.214       .  S
N196        C203   1.355       .  A
N197        N198   1.321       .  A
N197       N1951   1.314   1_455  A
N197       Mn213   2.208       .  S
N198       C1956   1.356   1_455  A
N199        N200   1.322       .  A
N199       N1949   1.314       .  A
N199       Mn224   2.209       .  S
N200        C204   1.355       .  A
N201        N202   1.321       .  A
N201       N1947   1.316   1_455  A
N201       Mn213   2.207       .  S
N202       C1955   1.354   1_455  A
C203       N1954   1.354       .  A
C203        C625   1.485       .  S
C204       N1950   1.356       .  A
C204        C494   1.495       .  S
N205        N206   1.319       .  A
N205       N1087   1.314       .  A
N205       Mn235   2.194       .  S
N206        C214   1.351       .  A
N207        N208   1.320       .  A
N207       N1085   1.317   1_545  A
N207       Mn213   2.205       .  S
N208       C1091   1.351   1_545  A
N209        N210   1.323       .  A
N209       N1083   1.317       .  A
N209       Mn235   2.216       .  S
N210        C215   1.355       .  A
N211        N212   1.320   1_565  A
N211       N1081   1.314       .  A
N211       Mn213   2.207   1_565  S
N212       C1090   1.356   1_545  A
Mn213     Cl2865   2.551   1_445  S
C214       N1088   1.357       .  A
C214        C462   1.486       .  S
C215       N1084   1.351       .  A
C215        C705   1.477       .  S
N216        N217   1.318   1_565  A
N216       N1098   1.314       .  A
N216       Mn224   2.199   1_565  S
N217       C1101   1.352   1_545  A
N218        N219   1.324       .  A
N218       N1096   1.316       .  A
N218       Mn236   2.214       .  S
N219        C226   1.356       .  A
N220        N221   1.319       .  A
N220       N1094   1.316   1_545  A
N220       Mn224   2.208       .  S
N221       C1102   1.355   1_545  A
N222        N223   1.321       .  A
N222       N1092   1.314       .  A
N222       Mn236   2.201       .  S
N223        C225   1.355       .  A
Mn224     Cl1113   2.544   1_545  S
C225       N1093   1.352       .  A
C225        C478   1.487       .  S
C226       N1097   1.355       .  A
C226        C689   1.492       .  S
N227        N228   1.320       .  A
N227       N1985   1.315   1_455  A
N227       Mn235   2.212       .  S
N228       C1990   1.357   1_455  A
N229        N230   1.322       .  A
N229       N1983   1.314       .  A
N229       Mn236   2.209       .  S
N230        C239   1.355       .  A
N231        N232   1.320       .  A
N231       N1981   1.314   1_455  A
N231       Mn235   2.201       .  S
N232       C1991   1.354   1_455  A
N233        N234   1.321       .  A
N233       N1979   1.315       .  A
N233       Mn236   2.208       .  S
N234        C238   1.355       .  A
Mn235     Cl1989   2.547   1_455  S
Mn236      Cl237   2.555       .  S
Cl237     Mn2841   2.551       .  S
Cl237     Mn1100   2.544       .  S
Cl237     Mn1987   2.547       .  S
C238       N1980   1.357       .  A
C238        C638   1.496       .  S
C239       N1984   1.354       .  A
C239        C510   1.494       .  S
N240        N241   1.325       .  A
N240       N1122   1.316       .  A
N240       Mn269   2.220       .  S
N241        C248   1.357       .  A
N242        N243   1.321       .  A
N242       N1120   1.314   1_545  A
N242       Mn258   2.212       .  S
N243       C1125   1.356   1_545  A
N244        N245   1.317       .  A
N244       N1118   1.314       .  A
N244       Mn269   2.181       .  S
N245        C249   1.352       .  A
N246        N247   1.319       .  A
N246       N1116   1.316   1_545  A
N246       Mn258   2.206       .  S
N247       C1124   1.352   1_545  A
C248       N1123   1.352       .  A
C248        C830   1.490       .  S
C249       N1119   1.356       .  A
C249        C430   1.489       .  S
N250        N251   1.320       .  A
N250       N2008   1.314       .  A
N250       Mn280   2.202       .  S
N251        C259   1.354       .  A
N252        N253   1.322       .  A
N252       N2006   1.317   1_455  A
N252       Mn258   2.214       .  S
N253       C2012   1.354       .  A
N254        N255   1.320       .  A
N254       N2004   1.317       .  A
N254       Mn280   2.203       .  S
N255        C260   1.351       .  A
N256        N257   1.319       .  A
N256       N2002   1.314   1_455  A
N256       Mn258   2.195       .  S
N257       C2011   1.354       .  A
Mn258     Cl2910   2.549   1_545  S
C259       N2009   1.354       .  A
C259        C401   1.490       .  S
C260       N2005   1.354       .  A
C260        C382   1.474       .  S
N261        N262   1.322       .  A
N261       N2019   1.315   1_455  A
N261       Mn269   2.213       .  S
N262       C2022   1.356       .  A
N263        N264   1.321       .  A
N263       N2017   1.315       .  A
N263       Mn281   2.222       .  S
N264        C271   1.358       .  A
N265        N266   1.318       .  A
N265       N2015   1.315   1_455  A
N265       Mn269   2.189       .  S
N266       C2023   1.351       .  A
N267        N268   1.321       .  A
N267       N2013   1.315       .  A
N267       Mn281   2.204       .  S
N268        C270   1.354       .  A
Mn269     Cl2034   2.549       .  S
C270       N2014   1.356       .  A
C270        C414   1.495       .  S
C271       N2018   1.351       .  A
C271        C366   1.490       .  S
N272        N273   1.320       .  A
N272       N1154   1.316   1_545  A
N272       Mn280   2.204       .  S
N273       C1159   1.352   1_545  A
N274        N275   1.323       .  A
N274       N1152   1.315       .  A
N274       Mn281   2.218       .  S
N275        C284   1.358       .  A
N276        N277   1.320   1_565  A
N276       N1150   1.315       .  A
N276       Mn280   2.204   1_565  S
N277       C1160   1.353   1_545  A
N278        N279   1.322       .  A
N278       N1148   1.316       .  A
N278       Mn281   2.206       .  S
N279        C283   1.353       .  A
Mn280     Cl1158   2.544   1_545  S
Mn281      Cl282   2.554       .  S
Cl282     Mn2886   2.549       .  S
Cl282     Mn2021   2.549       .  S
Cl282     Mn1156   2.544       .  S
C283       N1149   1.351       .  A
C283        C814   1.472       .  S
C284       N1153   1.353       .  A
C284        C446   1.496       .  S
N285        C290   1.351       .  A
N285        C289   1.354       .  A
N285        H317   1.037       .  S
N286        C293   1.354       .  A
N286        C294   1.351       .  A
N287        C292   1.356       .  A
N287        C291   1.353       .  A
N287        H318   1.037       .  S
N288        C295   1.352       .  A
N288        C296   1.353       .  A
C289        C297   1.386       .  A
C289        C305   1.415       .  A
C290        C306   1.414       .  A
C290        C298   1.387       .  A
C291        C299   1.388       .  A
C291        C308   1.418       .  A
C292        C307   1.417       .  A
C292        C300   1.386       .  A
C293        C305   1.414       .  A
C293        C301   1.385       .  A
C294        C308   1.416       .  A
C294        C302   1.388       .  A
C295        C303   1.386       .  A
C295        C306   1.414       .  A
C296        C304   1.386       .  A
C296        C307   1.415       .  A
C297        C298   1.376       .  A
C297        H309   1.082       .  S
C298        H310   1.082       .  S
C299        C300   1.379       .  A
C299        H311   1.082       .  S
C300        H312   1.082       .  S
C301        C302   1.372       .  A
C301        H313   1.082       .  S
C302        H314   1.082       .  S
C303        C304   1.372       .  A
C303        H315   1.082       .  S
C304        H316   1.082       .  S
C305        C497   1.493       .  S
C306        C398   1.484       .  S
C307        C417   1.494       .  S
C308        C513   1.488       .  S
N319        C324   1.352       .  A
N319        C323   1.354       .  A
N319        H351   1.035       .  S
N320        C327   1.351       .  A
N320        C328   1.350       .  A
N321        C326   1.353       .  A
N321        C325   1.353       .  A
N321        H352   1.035       .  S
N322        C329   1.352       .  A
N322        C330   1.353       .  A
C323        C331   1.387       .  A
C323        C339   1.416       .  A
C324        C340   1.417       .  A
C324        C332   1.388       .  A
C325        C333   1.387       .  A
C325        C342   1.416       .  A
C326        C341   1.417       .  A
C326        C334   1.387       .  A
C327        C339   1.412       .  A
C327        C335   1.386       .  A
C328        C342   1.413       .  A
C328        C336   1.387       .  A
C329        C337   1.387       .  A
C329        C340   1.417       .  A
C330        C338   1.386       .  A
C330        C341   1.416       .  A
C331        C332   1.375       .  A
C331        H343   1.082       .  S
C332        H344   1.082       .  S
C333        C334   1.376       .  A
C333        H345   1.082       .  S
C334        H346   1.082       .  S
C335        C336   1.370       .  A
C335        H347   1.082       .  S
C336        H348   1.082       .  S
C337        C338   1.370       .  A
C337        H349   1.082       .  S
C338        H350   1.082       .  S
C339        C465   1.486       .  S
C340        C433   1.486       .  S
C341        C449   1.490       .  S
C342        C481   1.483       .  S
C353        C359   1.539       .  S
C353        C357   1.551       .  S
C353       C2106   1.533       .  S
C353        C385   1.546       .  S
C354       C2105   1.533   1_455  S
C354        H361   1.086       .  S
C354        C355   1.364       .  D
C355       C2108   1.541   1_455  S
C355        C529   1.486       .  S
C356        C360   1.546       .  S
C356        C358   1.535       .  S
C356       C2107   1.541       .  S
C356        H362   1.111       .  S
C357        H363   1.081       .  S
C357        C358   1.366       .  D
C358        C369   1.483       .  S
C359        H364   1.086       .  S
C359        C360   1.367       .  D
C360        C545   1.495       .  S
C365        C366   1.404       .  A
C365        C370   1.401       .  A
C365        H372   1.084       .  S
C366       C2119   1.422       .  A
C367        C374   1.508       .  S
C367        C368   1.406       .  A
C367       C2118   1.422       .  A
C368       C2121   1.402   1_455  A
C368        H373   1.085       .  S
C369        C370   1.413       .  A
C369       C2120   1.402       .  A
C370        C371   1.503       .  S
C371        H375   1.110       .  S
C371        H376   1.110       .  S
C371        H377   1.098       .  S
C374        H378   1.110       .  S
C374        H379   1.110       .  S
C374        H380   1.111       .  S
C381        C382   1.394       .  A
C381        C386   1.405       .  A
C381        H388   1.085       .  S
C382       C2135   1.406       .  A
C383        C390   1.509       .  S
C383        C384   1.405       .  A
C383       C2134   1.406       .  A
C384       C2137   1.417   1_455  A
C384        H389   1.074       .  S
C385        C386   1.432       .  A
C385       C2136   1.417       .  A
C386        C387   1.512       .  S
C387        H391   1.111       .  S
C387        H392   1.101       .  S
C387        H393   1.111       .  S
C390        H394   1.110       .  S
C390        H395   1.111   1_455  S
C390        H396   1.111       .  S
C397        C398   1.399       .  A
C397        C402   1.404       .  A
C397        H404   1.084       .  S
C398       C2151   1.407       .  A
C399        C406   1.506       .  S
C399        C400   1.403       .  A
C399       C2150   1.407       .  A
C400       C2153   1.409       .  A
C400        H405   1.083       .  S
C401        C402   1.421       .  A
C401       C2152   1.409       .  A
C402        C403   1.507       .  S
C403        H407   1.111       .  S
C403        H408   1.110       .  S
C403        H409   1.110       .  S
C406        H410   1.110       .  S
C406        H411   1.110       .  S
C406        H412   1.111       .  S
C413        C418   1.405       .  A
C413       C2166   1.408       .  A
C413        H420   1.084       .  S
C414        C415   1.422       .  A
C414       C2165   1.408       .  A
C415        C422   1.508       .  S
C415        C416   1.408       .  A
C416        C417   1.401       .  A
C416        H421   1.084       .  S
C417       C2170   1.413       .  A
C418        C419   1.507       .  S
C418       C2169   1.413       .  A
C419        H423   1.111       .  S
C419        H424   1.110       .  S
C419        H425   1.109       .  S
C422        H426   1.109       .  S
C422        H427   1.111       .  S
C422        H428   1.111       .  S
C429        C430   1.410       .  A
C429        C434   1.402       .  A
C429        H436   1.083       .  S
C430        C431   1.420       .  A
C431        C438   1.507       .  S
C431        C432   1.403       .  A
C432        C433   1.400       .  A
C432        H437   1.084       .  S
C433        C434   1.408       .  A
C434        C435   1.507       .  S
C435        H439   1.111       .  S
C435        H440   1.110       .  S
C435       H1317   1.109       .  S
C438        H442   1.110       .  S
C438        H444   1.111       .  S
C438       H1319   1.110       .  S
H441       C1311   1.109       .  S
H443       C1314   1.110       .  S
C445        C446   1.408       .  A
C445        C450   1.405       .  A
C445        H452   1.083       .  S
C446        C447   1.423       .  A
C447       C1330   1.507       .  S
C447        C448   1.406       .  A
C448        C449   1.400       .  A
C448       H1329   1.084       .  S
C449        C450   1.412       .  A
C450        C451   1.507       .  S
C451        H455   1.110       .  S
C451        H457   1.108       .  S
C451       H1332   1.110       .  S
H453       C1324   1.084       .  S
C454       C1323   1.507       .  S
C454        H458   1.110       .  S
C454        H460   1.111       .  S
C454       H1335   1.108       .  S
H456       C1327   1.110       .  S
H459       C1330   1.108       .  S
C461        C462   1.406       .  A
C461        C466   1.401       .  A
C461        H468   1.084       .  S
C462        C463   1.422       .  A
C463        C470   1.509       .  S
C463        C464   1.405       .  A
C464        C465   1.399       .  A
C464        H469   1.084       .  S
C465        C466   1.409       .  A
C466        C467   1.507       .  S
C467        H472   1.110       .  S
C467       H1347   1.111       .  S
C467       H1349   1.110       .  S
C470        H474   1.110       .  S
C470        H476   1.111       .  S
C470       H1351   1.109       .  S
H471       C1343   1.111       .  S
H473       C1343   1.110       .  S
H475       C1346   1.109       .  S
C477        C478   1.407       .  A
C477        C482   1.402       .  A
C477        H484   1.082       .  S
C478       C1355   1.420       .  A
C479        C486   1.508       .  S
C479        C480   1.402   1_545  A
C479       C1354   1.420   1_545  A
C480       C1357   1.399       .  A
C480        H485   1.084   1_565  S
C481        C482   1.410       .  A
C481       C1356   1.399       .  A
C482        C483   1.507       .  S
C483        H487   1.110       .  S
C483        H489   1.108       .  S
C483       H1364   1.110       .  S
C486        H490   1.109       .  S
C486        H492   1.111       .  S
C486       H1367   1.110       .  S
H488       C1359   1.110       .  S
H491       C1362   1.110       .  S
C493        C498   1.404       .  A
C493       C2246   1.408   1_455  A
C493        H500   1.083       .  S
C494        C495   1.421       .  A
C494       C2245   1.408       .  A
C495        C502   1.507       .  S
C495        C496   1.409       .  A
C496        C497   1.402       .  A
C496        H501   1.084       .  S
C497       C2250   1.410       .  A
C498        C499   1.506       .  S
C498       C2249   1.410   1_455  A
C499        H503   1.111       .  S
C499        H504   1.110       .  S
C499        H505   1.110       .  S
C502        H506   1.109       .  S
C502        H507   1.110       .  S
C502        H508   1.111       .  S
C509        C514   1.403       .  A
C509       C2262   1.408   1_455  A
C509        H516   1.083       .  S
C510        C511   1.422       .  A
C510       C2261   1.408       .  A
C511        C518   1.505       .  S
C511        C512   1.407       .  A
C512        C513   1.400       .  A
C512        H517   1.084       .  S
C513       C2266   1.409       .  A
C514        C515   1.507       .  S
C514       C2265   1.409   1_455  A
C515        H519   1.111       .  S
C515        H520   1.110       .  S
C515        H521   1.110       .  S
C518        H522   1.110       .  S
C518        H523   1.110       .  S
C518        H524   1.111       .  S
C525        C526   1.408       .  A
C525        C530   1.404       .  A
C525        H532   1.083       .  S
C526        C527   1.419       .  A
C527        C534   1.506       .  S
C527        C528   1.409       .  A
C528        C529   1.403       .  A
C528        H533   1.084       .  S
C529        C530   1.412       .  A
C530        C531   1.509       .  S
C531        H535   1.111       .  S
C531        H536   1.111       .  S
C531        H537   1.107       .  S
C534        H538   1.110       .  S
C534        H539   1.110       .  S
C534        H540   1.111       .  S
C541        C542   1.400       .  A
C541        C546   1.407       .  A
C541        H548   1.085       .  S
C542        C543   1.412       .  A
C543        C550   1.505       .  S
C543        C544   1.408       .  A
C544        C545   1.404       .  A
C544        H549   1.084       .  S
C545        C546   1.423       .  A
C546        C547   1.509       .  S
C547        H551   1.111       .  S
C547        H552   1.106       .  S
C547        H553   1.110       .  S
C550        H554   1.110       .  S
C550        H555   1.110       .  S
C550        H556   1.111       .  S
C557        C558   1.399       .  A
C557        C562   1.405       .  A
C557        H564   1.084       .  S
C558        C559   1.412       .  A
C559        C566   1.507       .  S
C559        C560   1.402       .  A
C560        C561   1.407       .  A
C560        H565   1.084       .  S
C561        C562   1.423       .  A
C562        C563   1.505       .  S
C563        H567   1.111       .  S
C563        H568   1.109       .  S
C563        H569   1.110       .  S
C566        H570   1.108       .  S
C566        H571   1.110       .  S
C566        H572   1.111       .  S
C573        C574   1.400       .  A
C573        C578   1.406       .  A
C573        H580   1.084       .  S
C574        C575   1.410       .  A
C575        C582   1.506       .  S
C575        C576   1.404       .  A
C576        C577   1.408       .  A
C576        H581   1.084       .  S
C577        C578   1.421       .  A
C578        C579   1.506       .  S
C579        H583   1.110       .  S
C579        H584   1.109       .  S
C579        H585   1.111       .  S
C582        H586   1.110       .  S
C582        H587   1.111       .  S
C582        H588   1.111       .  S
C589        C590   1.408       .  A
C589        C594   1.404       .  A
C589        H596   1.083       .  S
C590        C591   1.425       .  A
C591        C598   1.508       .  S
C591        C592   1.406       .  A
C592        C593   1.399       .  A
C592        H597   1.084       .  S
C593        C594   1.408       .  A
C594        C595   1.506       .  S
C595        H599   1.111       .  S
C595        H600   1.110       .  S
C595        H601   1.110       .  S
C598        H602   1.110       .  S
C598        H603   1.110       .  S
C598        H604   1.111       .  S
C605        C606   1.407       .  A
C605        C610   1.405       .  A
C605        H612   1.084       .  S
C606        C607   1.419       .  A
C607        C614   1.508       .  S
C607        C608   1.405       .  A
C608        C609   1.402       .  A
C608        H613   1.084       .  S
C609        C610   1.411       .  A
C610        C611   1.507       .  S
C611        H615   1.111       .  S
C611        H616   1.110       .  S
C611        H617   1.109       .  S
C614        H618   1.110       .  S
C614        H619   1.108       .  S
C614        H620   1.111       .  S
C621        C622   1.417       .  A
C621        C626   1.408       .  A
C621        H628   1.076       .  S
C622       C2375   1.431       .  A
C623        C630   1.511       .  S
C623        C624   1.407       .  A
C623       C2374   1.431       .  A
C624       C2377   1.398       .  A
C624        H629   1.084       .  S
C625        C626   1.409       .  A
C625       C2376   1.398       .  A
C626        C627   1.509       .  S
C627        H631   1.111       .  S
C627        H632   1.111       .  S
C627        H633   1.109       .  S
C630        H634   1.103       .  S
C630        H635   1.104       .  S
C630        H636   1.111       .  S
C637        C642   1.401       .  A
C637       C2390   1.407   1_455  A
C637        H644   1.083       .  S
C638        C639   1.423       .  A
C638       C2389   1.407       .  A
C639        C646   1.508       .  S
C639        C640   1.410       .  A
C640        C641   1.401       .  A
C640        H645   1.083       .  S
C641       C2394   1.408       .  A
C642        C643   1.503       .  S
C642       C2393   1.408   1_455  A
C643        H647   1.111       .  S
C643        H648   1.109       .  S
C643        H649   1.109       .  S
C646        H650   1.109       .  S
C646        H651   1.111       .  S
C646        H652   1.111       .  S
C653        C654   1.407       .  A
C653        C658   1.408       .  A
C653        H660   1.084       .  S
C654        C655   1.423       .  A
C655        C662   1.504       .  S
C655        C656   1.402       .  A
C656        C657   1.396       .  A
C656        H661   1.085       .  S
C657        C658   1.411       .  A
C658        C659   1.506       .  S
C659        H663   1.111       .  S
C659        H664   1.110       .  S
C659        H665   1.110       .  S
C662        H666   1.100       .  S
C662        H667   1.110       .  S
C662        H668   1.111       .  S
C669        C670   1.407       .  A
C669        C674   1.403       .  A
C669        H676   1.084       .  S
C670        C671   1.417       .  A
C671        C678   1.507       .  S
C671        C672   1.408       .  A
C672        C673   1.403       .  A
C672        H677   1.081       .  S
C673        C674   1.412       .  A
C674        C675   1.508       .  S
C675        H679   1.111       .  S
C675        H680   1.111       .  S
C675        H681   1.108       .  S
C678        H682   1.110       .  S
C678        H683   1.110       .  S
C678        H684   1.111       .  S
C685        C686   1.405       .  A
C685        C690   1.412       .  A
C685        H692   1.082       .  S
C686       C1563   1.412       .  A
C687        C694   1.507       .  S
C687        C688   1.403       .  A
C687       C1562   1.412       .  A
C688       C1565   1.406   1_545  A
C688        H693   1.084       .  S
C689        C690   1.418       .  A
C689       C1564   1.406       .  A
C690        C691   1.507       .  S
C691        H695   1.111       .  S
C691        H697   1.109       .  S
C691       H1572   1.111       .  S
C694        H698   1.106       .  S
C694        H700   1.111       .  S
C694       H1575   1.111       .  S
H696       C1567   1.111       .  S
H699       C1570   1.111       .  S
C701        C702   1.406       .  A
C701        C706   1.410       .  A
C701        H708   1.084       .  S
C702       C1579   1.424       .  A
C703        C710   1.509       .  S
C703        C704   1.403       .  A
C703       C1578   1.424       .  A
C704       C1581   1.396   1_545  A
C704        H709   1.085       .  S
C705        C706   1.412       .  A
C705       C1580   1.396       .  A
C706        C707   1.506       .  S
C707        H711   1.111       .  S
C707        H713   1.110       .  S
C707       H1588   1.111       .  S
C710        H714   1.110       .  S
C710        H716   1.111   1_545  S
C710       H1591   1.103       .  S
H712       C1583   1.111   1_545  S
H715       C1586   1.103       .  S
C717        C718   1.415       .  A
C717        C722   1.404       .  A
C717        H724   1.077       .  S
C718        C719   1.428       .  A
C719        C726   1.509       .  S
C719        C720   1.408       .  A
C720        C721   1.398       .  A
C720        H725   1.085       .  S
C721        C722   1.408       .  A
C722        C723   1.508       .  S
C723        H727   1.111       .  S
C723        H728   1.110       .  S
C723        H729   1.110       .  S
C726        H730   1.111       .  S
C726        H731   1.103       .  S
C726        H732   1.110       .  S
C733        C734   1.399       .  A
C733        C738   1.405       .  A
C733        H740   1.084       .  S
C734        C735   1.407       .  A
C735        C742   1.503       .  S
C735        C736   1.400       .  A
C736        C737   1.407       .  A
C736        H741   1.084       .  S
C737        C738   1.422       .  A
C738        C739   1.508       .  S
C739        H743   1.111       .  S
C739        H744   1.110       .  S
C739        H745   1.110       .  S
C742        H746   1.109       .  S
C742        H747   1.108       .  S
C742        H748   1.111       .  S
C749        C750   1.407       .  A
C749        C754   1.401       .  A
C749        H756   1.083       .  S
C750        C751   1.422       .  A
C751        C758   1.506       .  S
C751        C752   1.404       .  A
C752        C753   1.399       .  A
C752        H757   1.084       .  S
C753        C754   1.410       .  A
C754        C755   1.507       .  S
C755        H759   1.110       .  S
C755        H760   1.111       .  S
C755        H761   1.108       .  S
C758        H762   1.110       .  S
C758        H763   1.105       .  S
C758        H764   1.111       .  S
C765        C766   1.400       .  A
C765        C770   1.405       .  A
C765        H772   1.084       .  S
C766        C767   1.412       .  A
C767        C774   1.508       .  S
C767        C768   1.401       .  A
C768        C769   1.406       .  A
C768        H773   1.084       .  S
C769        C770   1.423       .  A
C770        C771   1.509       .  S
C771        H775   1.111       .  S
C771        H776   1.110       .  S
C771        H777   1.110       .  S
C774        H778   1.111       .  S
C774        H779   1.108       .  S
C774        H780   1.110       .  S
C781        C782   1.399       .  A
C781        C786   1.401       .  A
C781        H788   1.084       .  S
C782        C783   1.412       .  A
C783        C790   1.507       .  S
C783        C784   1.403       .  A
C784        C785   1.408       .  A
C784        H789   1.084       .  S
C785        C786   1.420       .  A
C786        C787   1.508       .  S
C787        H791   1.111       .  S
C787        H792   1.110       .  S
C787        H793   1.110       .  S
C790        H794   1.110       .  S
C790        H795   1.108       .  S
C790        H796   1.110       .  S
C797        C798   1.407       .  A
C797        C802   1.404       .  A
C797        H804   1.084       .  S
C798        C799   1.424       .  A
C799        C806   1.508       .  S
C799        C800   1.405       .  A
C800        C801   1.398       .  A
C800        H805   1.084       .  S
C801        C802   1.410       .  A
C802        C803   1.506       .  S
C803        H807   1.111       .  S
C803        H808   1.110       .  S
C803        H809   1.110       .  S
C806        H810   1.110       .  S
C806        H811   1.109       .  S
C806        H812   1.111       .  S
C813        C814   1.397       .  A
C813        C818   1.402       .  A
C813        H820   1.085       .  S
C814        C815   1.412       .  A
C815        C822   1.506       .  S
C815        C816   1.406       .  A
C816        C817   1.402       .  A
C816       H1697   1.084       .  S
C817        C818   1.423       .  A
C818        C819   1.510       .  S
C819        H823   1.111       .  S
C819        H825   1.106       .  S
C819       H1700   1.110       .  S
H821       C1692   1.084       .  S
C822        H827   1.110       .  S
C822       H1702   1.110       .  S
C822       H1704   1.111       .  S
H824       C1695   1.110       .  S
H826       C1698   1.110       .  S
H828       C1698   1.111       .  S
C829        C830   1.403       .  A
C829        C834   1.409       .  A
C829        H836   1.084       .  S
C830       C1707   1.420       .  A
C831        C838   1.508       .  S
C831        C832   1.407       .  A
C831       C1706   1.420   1_545  A
C832       C1709   1.401       .  A
C832        H837   1.084       .  S
C833        C834   1.414       .  A
C833       C1708   1.401       .  A
C834        C835   1.502       .  S
C835        H839   1.110       .  S
C835        H840   1.109       .  S
C835        H841   1.109       .  S
C838        H843   1.109       .  S
C838        H844   1.111       .  S
C838       H1718   1.111       .  S
H842       C1714   1.111       .  S
C845        C846   1.400       .  A
C845        C850   1.405       .  A
C845        H852   1.084       .  S
C846        C847   1.413       .  A
C847        C854   1.512       .  S
C847        C848   1.401       .  A
C848        C849   1.412       .  A
C848        H853   1.073       .  S
C849        C850   1.431       .  A
C850        C851   1.515       .  S
C851        H855   1.111       .  S
C851        H856   1.106       .  S
C851        H857   1.106       .  S
C854        H858   1.111       .  S
C854        H859   1.109       .  S
C854        H860   1.111       .  S
C861        C862   1.402       .  A
C861        C866   1.402       .  A
C861        H868   1.084       .  S
C862        C863   1.414       .  A
C863        C870   1.506       .  S
C863        C864   1.406       .  A
C864        C865   1.406       .  A
C864        H869   1.084       .  S
C865        C866   1.418       .  A
C866        C867   1.508       .  S
C867        H871   1.111       .  S
C867        H872   1.110       .  S
C867        H873   1.110       .  S
C870        H874   1.107       .  S
C870        H875   1.108       .  S
C870        H876   1.111       .  S
C877        C878   1.546       .  S
C877        C883   1.532       .  S
C877        C881   1.539       .  S
C877       C1725   1.542       .  S
C878        H885   1.080       .  S
C879        C880   1.545   1_545  S
C879       C1693   1.488       .  S
C880        C884   1.546   1_565  S
C880        C882   1.537       .  S
C880        H886   1.109       .  S
C882       C1738   1.487       .  S
C883        H888   1.084       .  S
C884       C1709   1.490       .  S
N889        C894   1.353       .  A
N889        C893   1.353   1_554  A
N889        H921   1.036       .  S
N890       C2649   1.352       .  A
N890        C898   1.352   1_655  A
N891        C896   1.353   1_556  A
N891        C895   1.352       .  A
N891        H922   1.038   1_556  S
N892       C2651   1.352       .  A
N892        C900   1.351   1_655  A
C893        C901   1.387       .  A
C893        C909   1.417       .  A
C894        C910   1.416       .  A
C894        C902   1.387       .  A
C895        C903   1.387       .  A
C895        C912   1.414       .  A
C896        C911   1.413       .  A
C896        C904   1.387       .  A
C897       N2642   1.352       .  A
C897        C909   1.415       .  A
C897        C905   1.387       .  A
C898        C912   1.413       .  A
C898        C906   1.386       .  A
C899       N2644   1.352       .  A
C899        C907   1.386       .  A
C899        C910   1.414       .  A
C900        C908   1.387       .  A
C900        C911   1.413       .  A
C901        C902   1.376   1_556  A
C901        H913   1.082       .  S
C902        H914   1.082       .  S
C903        C904   1.375   1_556  A
C903        H915   1.082       .  S
C904        H916   1.082       .  S
C905       C2658   1.371       .  A
C905        H917   1.082       .  S
C906       C2657   1.371   1_455  A
C906        H918   1.082       .  S
C907       C2660   1.370       .  A
C907        H919   1.082       .  S
C908       C2659   1.370   1_455  A
C908        H920   1.082       .  S
C909       C1677   1.488       .  S
C910       C1642   1.487       .  S
C911       C1629   1.484       .  S
C912       C1658   1.485       .  S
C923        C924   1.534       .  S
C923        C929   1.538       .  S
C923        C927   1.549       .  S
C923       C1594   1.546       .  S
C924        H931   1.086       .  S
C925        C926   1.546   1_545  S
C925       C1578   1.495       .  S
C926        C930   1.546   1_565  S
C926        C928   1.532       .  S
C926        H932   1.111       .  S
C928       C1610   1.476       .  S
C929        H934   1.086       .  S
C930       C1562   1.490       .  S
C935        C936   1.548       .  S
C935       C2693   1.539       .  S
C935        C939   1.544       .  S
C935       C1498   1.554       .  S
C936        H943   1.081       .  S
C936        C937   1.367       .  D
C937       C2690   1.538       .  S
C937       C1549   1.486       .  S
C938       C2689   1.538   1_455  S
C938        C942   1.543       .  S
C938       C2692   1.533       .  S
C938        H944   1.111       .  S
C939       H2697   1.085       .  S
C939        C940   1.366       .  D
C940       C2690   1.533       .  S
C940       C1517   1.483       .  S
C941       C2687   1.539       .  S
C941        H946   1.086       .  S
C941        C942   1.370       .  D
C942       C1530   1.498       .  S
H945       C2691   1.085       .  S
N947        C952   1.354       .  A
N947        C951   1.354   1_554  A
N947        H979   1.038       .  S
N948        C956   1.353       .  A
N949        C954   1.353       .  A
N949        C953   1.353   1_554  A
N949        H980   1.038       .  S
N950        C958   1.353       .  A
C951        C959   1.387       .  A
C951        C967   1.417       .  A
C952        C968   1.417       .  A
C952        C960   1.387       .  A
C953        C961   1.387       .  A
C953        C970   1.414       .  A
C954        C969   1.415       .  A
C954        C962   1.387       .  A
C955        C967   1.416       .  A
C955        C963   1.387       .  A
C956        C970   1.413       .  A
C956        C964   1.385       .  A
C957        C965   1.387       .  A
C957        C968   1.417       .  A
C958        C966   1.385       .  A
C958        C969   1.415       .  A
C959        C960   1.378   1_556  A
C959        H971   1.082       .  S
C960        H972   1.082       .  S
C961        C962   1.375   1_556  A
C961        H973   1.082       .  S
C962        H974   1.082       .  S
C963        H975   1.082       .  S
C964        H976   1.082       .  S
C965        H977   1.082       .  S
C966        H978   1.082       .  S
C967       C1485   1.492       .  S
C968       C1450   1.490       .  S
C969       C1434   1.489       .  S
C970       C1469   1.489       .  S
N981        N982   1.322       .  A
N981        N987   1.314       .  A
N981      Mn1010   2.205       .  S
N982        C989   1.355       .  A
N983        N985   1.315       .  A
N983        N984   1.319       .  A
N983       Mn999   2.197       .  S
N984        C990   1.353       .  A
N985        N986   1.318       .  A
N985      Mn1010   2.205       .  S
N986        C990   1.355       .  A
N987        N988   1.320       .  A
N987       Mn999   2.199       .  S
N988        C989   1.352       .  A
C989       C1482   1.488       .  S
C990       C1613   1.489       .  S
N991        N997   1.316       .  A
N991        N992   1.319       .  A
N991      Mn1021   2.204       .  S
N992       C1000   1.354       .  A
N993        N994   1.318       .  A
N993        N995   1.315       .  A
N993       Mn999   2.190       .  S
N994       C1001   1.351       .  A
N995        N996   1.323       .  A
N995      Mn1021   2.222       .  S
N996       C1001   1.359       .  A
N997        N998   1.323       .  A
N997       Mn999   2.209       .  S
N998       C1000   1.355       .  A
Mn999     Cl1023   2.550       .  S
C1000      C1546   1.489       .  S
C1001      C1674   1.492       .  S
N1002      N1003   1.324       .  A
N1002      N1008   1.317       .  A
N1002     Mn1010   2.211       .  S
N1003      C1011   1.354       .  A
N1004      N1006   1.315       .  A
N1004      N1005   1.318       .  A
N1004     Mn1022   2.201       .  S
N1005      C1012   1.353       .  A
N1006      N1007   1.321       .  A
N1006     Mn1010   2.196       .  S
N1007      C1012   1.354       .  A
N1008      N1009   1.320       .  A
N1008     Mn1022   2.208       .  S
N1009      C1011   1.351       .  A
Mn1010    Cl1023   2.552       .  S
C1011      C1533   1.476       .  S
C1012      C1661   1.485       .  S
N1013      N1014   1.318       .  A
N1013      N1019   1.313       .  A
N1013     Mn1021   2.193       .  S
N1014      C1024   1.351       .  A
N1015      N1016   1.320       .  A
N1015      N1017   1.318       .  A
N1015     Mn1022   2.201       .  S
N1016      C1025   1.351       .  A
N1017      N1018   1.325       .  A
N1017     Mn1021   2.231       .  S
N1018      C1025   1.357       .  A
N1019      N1020   1.322       .  A
N1019     Mn1022   2.210       .  S
N1020      C1024   1.358       .  A
Mn1021    Cl1023   2.548       .  S
Mn1022    Cl1023   2.545       .  S
C1024      C1466   1.495       .  S
C1025      C1597   1.480       .  S
N1026      N1027   1.320       .  A
N1026      N1032   1.317       .  A
N1026     Mn1055   2.212       .  S
N1027      C1034   1.354       .  A
N1028      N1030   1.315       .  A
N1028      N1029   1.321       .  A
N1028     Mn1044   2.205       .  S
N1029      C1035   1.354       .  A
N1030      N1031   1.321       .  A
N1030     Mn1055   2.207       .  S
N1031      C1035   1.354       .  A
N1032      N1033   1.320       .  A
N1032     Mn1044   2.205       .  S
N1033      C1034   1.354       .  A
C1034      C1741   1.487       .  S
C1035      C1453   1.492       .  S
N1036      N1042   1.314       .  A
N1036      N1037   1.322       .  A
N1036     Mn1066   2.205       .  S
N1037      C1045   1.357       .  A
N1038      N1039   1.325       .  A
N1038      N1040   1.317       .  A
N1038     Mn1044   2.225       .  S
N1039      C1046   1.357       .  A
N1040      N1041   1.321       .  A
N1040     Mn1066   2.208       .  S
N1041      C1046   1.351       .  A
N1042      N1043   1.318       .  A
N1042     Mn1044   2.192       .  S
N1043      C1045   1.351       .  A
Mn1044    Cl1068   2.550       .  S
C1045      C1645   1.489       .  S
C1046      C1418   1.482       .  S
N1047      N1048   1.320       .  A
N1047      N1053   1.314       .  A
N1047     Mn1055   2.207       .  S
N1048      C1056   1.356       .  A
N1049      N1051   1.316       .  A
N1049      N1050   1.319       .  A
N1049     Mn1067   2.205       .  S
N1050      C1057   1.354       .  A
N1051      N1052   1.324       .  A
N1051     Mn1055   2.218       .  S
N1052      C1057   1.357       .  A
N1053      N1054   1.319       .  A
N1053     Mn1067   2.197       .  S
N1054      C1056   1.353       .  A
Mn1055    Cl1068   2.551       .  S
C1056      C1626   1.490       .  S
C1057      C1402   1.494       .  S
N1058      N1059   1.315       .  A
N1058      N1064   1.316       .  A
N1058     Mn1066   2.190       .  S
N1059      C1069   1.349       .  A
N1060      N1061   1.319       .  A
N1060      N1062   1.314       .  A
N1060     Mn1067   2.194       .  S
N1061      C1070   1.352       .  A
N1062      N1063   1.322       .  A
N1062     Mn1066   2.209       .  S
N1063      C1070   1.357       .  A
N1064      N1065   1.322       .  A
N1064     Mn1067   2.207       .  S
N1065      C1069   1.357       .  A
Mn1066    Cl1068   2.548       .  S
Mn1067    Cl1068   2.549       .  S
C1069      C1722   1.483       .  S
C1070      C1437   1.494       .  S
N1071      N1072   1.322       .  A
N1071      N2829   1.316       .  A
N1071     Mn1100   2.214       .  S
N1072      C1079   1.355       .  A
N1073      N2827   1.314   1_455  A
N1073      N1074   1.321       .  A
N1073     Mn1089   2.208       .  S
N1074      C2832   1.356   1_455  A
N1075      N2825   1.314       .  A
N1075      N1076   1.322       .  A
N1075     Mn1100   2.209       .  S
N1076      C1080   1.355       .  A
N1077      N2823   1.316   1_455  A
N1077      N1078   1.321       .  A
N1077     Mn1089   2.208       .  S
N1078      C2831   1.354   1_455  A
C1079      N2830   1.354       .  A
C1079      C1501   1.485       .  S
C1080      N2826   1.356       .  A
C1080      C1370   1.494       .  S
N1081      N1082   1.319       .  A
N1081     Mn1111   2.194       .  S
N1082      C1090   1.351       .  A
N1083      N1084   1.320       .  A
N1083     Mn1089   2.205       .  S
N1085      N1086   1.323       .  A
N1085     Mn1111   2.216       .  S
N1086      C1091   1.355       .  A
N1087      N1088   1.320       .  A
N1087     Mn1089   2.208       .  S
Mn1089    Cl1989   2.551   1_455  S
C1090      C1338   1.486       .  S
C1091      C1581   1.477       .  S
N1092      N1093   1.318       .  A
N1092     Mn1100   2.199       .  S
N1094      N1095   1.324       .  A
N1094     Mn1112   2.214       .  S
N1095      C1102   1.356       .  A
N1096      N1097   1.319       .  A
N1096     Mn1100   2.207       .  S
N1098      N1099   1.321       .  A
N1098     Mn1112   2.200       .  S
N1099      C1101   1.355       .  A
C1101      C1354   1.487       .  S
C1102      C1565   1.492       .  S
N1103      N1104   1.320       .  A
N1103      N2861   1.315   1_455  A
N1103     Mn1111   2.213       .  S
N1104      C2866   1.357   1_455  A
N1105      N1106   1.322       .  A
N1105      N2859   1.314       .  A
N1105     Mn1112   2.209       .  S
N1106      C1115   1.355       .  A
N1107      N2857   1.314   1_455  A
N1107      N1108   1.320       .  A
N1107     Mn1111   2.200       .  S
N1108      C2867   1.354   1_455  A
N1109      N2855   1.315       .  A
N1109      N1110   1.321       .  A
N1109     Mn1112   2.206       .  S
N1110      C1114   1.354       .  A
Mn1111    Cl2865   2.548   1_455  S
Mn1112    Cl1113   2.554       .  S
Cl1113    Mn1965   2.551   1_565  S
Cl1113    Mn2863   2.548       .  S
C1114      N2856   1.357       .  A
C1114      C1514   1.496       .  S
C1115      N2860   1.354       .  A
C1115      C1386   1.494       .  S
N1116      N1117   1.325       .  A
N1116     Mn1145   2.220       .  S
N1117      C1124   1.357       .  A
N1118      N1119   1.321       .  A
N1118     Mn1134   2.211       .  S
N1120      N1121   1.317       .  A
N1120     Mn1145   2.181       .  S
N1121      C1125   1.352       .  A
N1122      N1123   1.319       .  A
N1122     Mn1134   2.205       .  S
C1124      C1706   1.490       .  S
C1125      C1306   1.489       .  S
N1126      N2884   1.314       .  A
N1126      N1127   1.320       .  A
N1126     Mn1156   2.202       .  S
N1127      C1135   1.354       .  A
N1128      N1129   1.321       .  A
N1128      N2882   1.317   1_455  A
N1128     Mn1134   2.213       .  S
N1129      C2888   1.354       .  A
N1130      N2880   1.317       .  A
N1130      N1131   1.320       .  A
N1130     Mn1156   2.203       .  S
N1131      C1136   1.351       .  A
N1132      N2878   1.314   1_455  A
N1132      N1133   1.319       .  A
N1132     Mn1134   2.194       .  S
N1133      C2887   1.354       .  A
Mn1134    Cl2034   2.549       .  S
C1135      N2885   1.354       .  A
C1135      C1277   1.490       .  S
C1136      N2881   1.354       .  A
C1136      C1258   1.473       .  S
N1137      N1138   1.322       .  A
N1137      N2895   1.315   1_455  A
N1137     Mn1145   2.212       .  S
N1138      C2898   1.356       .  A
N1139      N2893   1.315       .  A
N1139      N1140   1.321       .  A
N1139     Mn1157   2.222       .  S
N1140      C1147   1.358       .  A
N1141      N2891   1.315   1_455  A
N1141      N1142   1.319       .  A
N1141     Mn1145   2.190       .  S
N1142      C2899   1.351       .  A
N1143      N2889   1.315       .  A
N1143      N1144   1.321       .  A
N1143     Mn1157   2.204       .  S
N1144      C1146   1.354       .  A
Mn1145    Cl2910   2.550       .  S
C1146      N2890   1.356       .  A
C1146      C1290   1.495       .  S
C1147      N2894   1.351       .  A
C1147      C1242   1.491       .  S
N1148      N1149   1.320       .  A
N1148     Mn1156   2.204       .  S
N1150      N1151   1.323       .  A
N1150     Mn1157   2.217       .  S
N1151      C1160   1.358       .  A
N1152      N1153   1.320       .  A
N1152     Mn1156   2.204       .  S
N1154      N1155   1.322       .  A
N1154     Mn1157   2.207       .  S
N1155      C1159   1.353       .  A
Mn1157    Cl1158   2.554       .  S
Cl1158    Mn2010   2.549   1_565  S
Cl1158    Mn2897   2.550       .  S
C1159      C1690   1.473       .  S
C1160      C1322   1.496       .  S
N1161      C1166   1.351       .  A
N1161      C1165   1.354       .  A
N1161      H1193   1.036       .  S
N1162      C1169   1.353       .  A
N1162      C1170   1.351       .  A
N1163      C1168   1.355       .  A
N1163      C1167   1.353       .  A
N1163      H1194   1.037       .  S
N1164      C1171   1.352       .  A
N1164      C1172   1.353       .  A
C1165      C1173   1.386       .  A
C1165      C1181   1.415       .  A
C1166      C1182   1.414       .  A
C1166      C1174   1.387       .  A
C1167      C1175   1.387       .  A
C1167      C1184   1.418       .  A
C1168      C1183   1.417       .  A
C1168      C1176   1.386       .  A
C1169      C1181   1.414       .  A
C1169      C1177   1.385       .  A
C1170      C1184   1.416       .  A
C1170      C1178   1.388       .  A
C1171      C1179   1.386       .  A
C1171      C1182   1.414       .  A
C1172      C1180   1.386       .  A
C1172      C1183   1.415       .  A
C1173      C1174   1.376       .  A
C1173      H1185   1.082       .  S
C1174      H1186   1.082       .  S
C1175      C1176   1.379       .  A
C1175      H1187   1.082       .  S
C1176      H1188   1.082       .  S
C1177      C1178   1.372       .  A
C1177      H1189   1.082       .  S
C1178      H1190   1.082       .  S
C1179      C1180   1.372       .  A
C1179      H1191   1.082       .  S
C1180      H1192   1.082       .  S
C1181      C1373   1.493       .  S
C1182      C1274   1.484       .  S
C1183      C1293   1.494       .  S
C1184      C1389   1.488       .  S
N1195      C1200   1.353       .  A
N1195      C1199   1.354       .  A
N1195      H1227   1.035       .  S
N1196      C1203   1.351       .  A
N1196      C1204   1.350       .  A
N1197      C1202   1.353       .  A
N1197      C1201   1.353       .  A
N1197      H1228   1.035       .  S
N1198      C1205   1.352       .  A
N1198      C1206   1.353       .  A
C1199      C1207   1.387       .  A
C1199      C1215   1.416       .  A
C1200      C1216   1.417       .  A
C1200      C1208   1.388       .  A
C1201      C1209   1.387       .  A
C1201      C1218   1.416       .  A
C1202      C1217   1.416       .  A
C1202      C1210   1.387       .  A
C1203      C1215   1.412       .  A
C1203      C1211   1.386       .  A
C1204      C1218   1.413       .  A
C1204      C1212   1.387       .  A
C1205      C1213   1.387       .  A
C1205      C1216   1.417       .  A
C1206      C1214   1.386       .  A
C1206      C1217   1.416       .  A
C1207      C1208   1.374       .  A
C1207      H1219   1.082       .  S
C1208      H1220   1.082       .  S
C1209      C1210   1.376       .  A
C1209      H1221   1.082       .  S
C1210      H1222   1.082       .  S
C1211      C1212   1.370       .  A
C1211      H1223   1.082       .  S
C1212      H1224   1.082       .  S
C1213      C1214   1.370       .  A
C1213      H1225   1.082       .  S
C1214      H1226   1.082       .  S
C1215      C1341   1.486       .  S
C1216      C1309   1.486       .  S
C1217      C1325   1.490       .  S
C1218      C1357   1.483       .  S
C1229      C2982   1.532       .  S
C1229      C1235   1.540       .  S
C1229      C1233   1.551       .  S
C1229      C1261   1.545       .  S
C1230      C2981   1.532   1_455  S
C1230      H1237   1.086       .  S
C1230      C1231   1.364       .  D
C1231      C2984   1.542   1_455  S
C1231      C1405   1.486       .  S
C1232      C2983   1.542       .  S
C1232      C1236   1.546       .  S
C1232      C1234   1.536       .  S
C1232      H1238   1.111       .  S
C1233      H1239   1.081       .  S
C1233      C1234   1.366       .  D
C1234      C1245   1.483       .  S
C1235      H1240   1.086       .  S
C1235      C1236   1.367       .  D
C1236      C1421   1.495       .  S
C1241      C1242   1.404       .  A
C1241      C1246   1.401       .  A
C1241      H1248   1.084       .  S
C1242      C2995   1.423       .  A
C1243      C1250   1.508       .  S
C1243      C2994   1.423       .  A
C1243      C1244   1.406       .  A
C1244      C2997   1.402   1_455  A
C1244      H1249   1.085       .  S
C1245      C2996   1.402       .  A
C1245      C1246   1.412       .  A
C1246      C1247   1.503       .  S
C1247      H1251   1.110       .  S
C1247      H1252   1.110       .  S
C1247      H1253   1.098       .  S
C1250      H1254   1.110       .  S
C1250      H1255   1.110       .  S
C1250      H1256   1.111       .  S
C1257      C1258   1.394       .  A
C1257      C1262   1.405       .  A
C1257      H1264   1.085       .  S
C1258      C3011   1.406       .  A
C1259      C1266   1.509       .  S
C1259      C3010   1.406       .  A
C1259      C1260   1.405       .  A
C1260      C3013   1.417   1_455  A
C1260      H1265   1.074       .  S
C1261      C3012   1.417       .  A
C1261      C1262   1.432       .  A
C1262      C1263   1.512       .  S
C1263      H1267   1.111       .  S
C1263      H1268   1.101       .  S
C1263      H1269   1.111       .  S
C1266      H1270   1.110       .  S
C1266      H1271   1.111   1_455  S
C1266      H1272   1.111       .  S
C1273      C1274   1.399       .  A
C1273      C1278   1.404       .  A
C1273      H1280   1.084       .  S
C1274      C3027   1.407       .  A
C1275      C1282   1.506       .  S
C1275      C3026   1.407       .  A
C1275      C1276   1.403       .  A
C1276      C3029   1.409       .  A
C1276      H1281   1.083       .  S
C1277      C3028   1.409       .  A
C1277      C1278   1.421       .  A
C1278      C1279   1.507       .  S
C1279      H1283   1.111       .  S
C1279      H1284   1.110       .  S
C1279      H1285   1.110       .  S
C1282      H1286   1.110       .  S
C1282      H1287   1.110       .  S
C1282      H1288   1.111       .  S
C1289      C3042   1.408       .  A
C1289      C1294   1.405       .  A
C1289      H1296   1.084       .  S
C1290      C3041   1.408       .  A
C1290      C1291   1.422       .  A
C1291      C1298   1.508       .  S
C1291      C1292   1.408       .  A
C1292      C1293   1.401       .  A
C1292      H1297   1.084       .  S
C1293      C3046   1.413       .  A
C1294      C1295   1.507       .  S
C1294      C3045   1.413       .  A
C1295      H1299   1.111       .  S
C1295      H1300   1.110       .  S
C1295      H1301   1.108       .  S
C1298      H1302   1.109       .  S
C1298      H1303   1.111       .  S
C1298      H1304   1.111       .  S
C1305      C1306   1.410       .  A
C1305      C1310   1.402       .  A
C1305      H1312   1.083       .  S
C1306      C1307   1.420   1_565  A
C1307      C1314   1.507       .  S
C1307      C1308   1.403   1_545  A
C1308      C1309   1.400       .  A
C1308      H1313   1.084   1_565  S
C1309      C1310   1.408       .  A
C1310      C1311   1.507       .  S
C1311      H1315   1.111       .  S
C1311      H1316   1.110       .  S
C1314      H1318   1.110       .  S
C1314      H1320   1.111       .  S
C1321      C1322   1.408       .  A
C1321      C1326   1.404       .  A
C1321      H1328   1.083       .  S
C1322      C1323   1.423   1_565  A
C1323      C1324   1.406       .  A
C1324      C1325   1.400   1_545  A
C1325      C1326   1.412       .  A
C1326      C1327   1.507       .  S
C1327      H1331   1.110       .  S
C1327      H1333   1.108       .  S
C1330      H1334   1.110       .  S
C1330      H1336   1.111       .  S
C1337      C1338   1.406       .  A
C1337      C1342   1.400       .  A
C1337      H1344   1.084   1_565  S
C1338      C1339   1.422       .  A
C1339      C1346   1.509       .  S
C1339      C1340   1.405       .  A
C1340      C1341   1.400       .  A
C1340      H1345   1.084       .  S
C1341      C1342   1.409       .  A
C1342      C1343   1.507   1_565  S
C1343      H1348   1.110       .  S
C1346      H1350   1.110       .  S
C1346      H1352   1.111       .  S
C1353      C1354   1.407       .  A
C1353      C1358   1.402       .  A
C1353      H1360   1.082       .  S
C1355      C1362   1.508       .  S
C1355      C1356   1.402       .  A
C1356      H1361   1.084       .  S
C1357      C1358   1.410       .  A
C1358      C1359   1.507       .  S
C1359      H1363   1.110       .  S
C1359      H1365   1.108       .  S
C1362      H1366   1.109       .  S
C1362      H1368   1.111       .  S
C1369      C3122   1.408   1_455  A
C1369      C1374   1.404       .  A
C1369      H1376   1.083       .  S
C1370      C3121   1.408       .  A
C1370      C1371   1.421       .  A
C1371      C1378   1.507       .  S
C1371      C1372   1.409       .  A
C1372      C1373   1.402       .  A
C1372      H1377   1.084       .  S
C1373      C3126   1.410       .  A
C1374      C1375   1.506       .  S
C1374      C3125   1.410   1_455  A
C1375      H1379   1.111       .  S
C1375      H1380   1.110       .  S
C1375      H1381   1.110       .  S
C1378      H1382   1.109       .  S
C1378      H1383   1.110       .  S
C1378      H1384   1.111       .  S
C1385      C3138   1.408   1_455  A
C1385      C1390   1.403       .  A
C1385      H1392   1.083       .  S
C1386      C3137   1.408       .  A
C1386      C1387   1.422       .  A
C1387      C1394   1.505       .  S
C1387      C1388   1.407       .  A
C1388      C1389   1.400       .  A
C1388      H1393   1.084       .  S
C1389      C3142   1.409       .  A
C1390      C1391   1.507       .  S
C1390      C3141   1.409   1_455  A
C1391      H1395   1.111       .  S
C1391      H1396   1.110       .  S
C1391      H1397   1.110       .  S
C1394      H1398   1.110       .  S
C1394      H1399   1.110       .  S
C1394      H1400   1.111       .  S
C1401      C1402   1.408       .  A
C1401      C1406   1.404       .  A
C1401      H1408   1.083       .  S
C1402      C1403   1.419       .  A
C1403      C1410   1.506       .  S
C1403      C1404   1.409       .  A
C1404      C1405   1.402       .  A
C1404      H1409   1.084       .  S
C1405      C1406   1.412       .  A
C1406      C1407   1.509       .  S
C1407      H1411   1.111       .  S
C1407      H1412   1.111       .  S
C1407      H1413   1.107       .  S
C1410      H1414   1.110       .  S
C1410      H1415   1.110       .  S
C1410      H1416   1.111       .  S
C1417      C1418   1.400       .  A
C1417      C1422   1.407       .  A
C1417      H1424   1.085       .  S
C1418      C1419   1.412       .  A
C1419      C1426   1.505       .  S
C1419      C1420   1.408       .  A
C1420      C1421   1.405       .  A
C1420      H1425   1.084       .  S
C1421      C1422   1.423       .  A
C1422      C1423   1.509       .  S
C1423      H1427   1.111       .  S
C1423      H1428   1.106       .  S
C1423      H1429   1.110       .  S
C1426      H1430   1.110       .  S
C1426      H1431   1.110       .  S
C1426      H1432   1.111       .  S
C1433      C1434   1.399       .  A
C1433      C1438   1.405       .  A
C1433      H1440   1.084       .  S
C1434      C1435   1.412       .  A
C1435      C1442   1.507       .  S
C1435      C1436   1.403       .  A
C1436      C1437   1.407       .  A
C1436      H1441   1.084       .  S
C1437      C1438   1.423       .  A
C1438      C1439   1.505       .  S
C1439      H1443   1.111       .  S
C1439      H1444   1.109       .  S
C1439      H1445   1.110       .  S
C1442      H1446   1.108       .  S
C1442      H1447   1.110       .  S
C1442      H1448   1.111       .  S
C1449      C1450   1.400       .  A
C1449      C1454   1.407       .  A
C1449      H1456   1.084       .  S
C1450      C1451   1.410       .  A
C1451      C1458   1.506       .  S
C1451      C1452   1.404       .  A
C1452      C1453   1.408       .  A
C1452      H1457   1.084       .  S
C1453      C1454   1.421       .  A
C1454      C1455   1.506       .  S
C1455      H1459   1.110       .  S
C1455      H1460   1.109       .  S
C1455      H1461   1.111       .  S
C1458      H1462   1.110       .  S
C1458      H1463   1.111       .  S
C1458      H1464   1.111       .  S
C1465      C1466   1.408       .  A
C1465      C1470   1.404       .  A
C1465      H1472   1.083       .  S
C1466      C1467   1.425       .  A
C1467      C1474   1.508       .  S
C1467      C1468   1.406       .  A
C1468      C1469   1.399       .  A
C1468      H1473   1.084       .  S
C1469      C1470   1.408       .  A
C1470      C1471   1.506       .  S
C1471      H1475   1.111       .  S
C1471      H1476   1.110       .  S
C1471      H1477   1.110       .  S
C1474      H1478   1.110       .  S
C1474      H1479   1.110       .  S
C1474      H1480   1.111       .  S
C1481      C1482   1.407       .  A
C1481      C1486   1.405       .  A
C1481      H1488   1.084       .  S
C1482      C1483   1.419       .  A
C1483      C1490   1.508       .  S
C1483      C1484   1.405       .  A
C1484      C1485   1.402       .  A
C1484      H1489   1.084       .  S
C1485      C1486   1.411       .  A
C1486      C1487   1.507       .  S
C1487      H1491   1.111       .  S
C1487      H1492   1.110       .  S
C1487      H1493   1.109       .  S
C1490      H1494   1.110       .  S
C1490      H1495   1.108       .  S
C1490      H1496   1.111       .  S
C1497      C1498   1.417       .  A
C1497      C1502   1.409       .  A
C1497      H1504   1.076       .  S
C1498      C3251   1.432       .  A
C1499      C1506   1.511       .  S
C1499      C3250   1.432       .  A
C1499      C1500   1.407       .  A
C1500      C3253   1.398       .  A
C1500      H1505   1.084       .  S
C1501      C3252   1.398       .  A
C1501      C1502   1.409       .  A
C1502      C1503   1.509       .  S
C1503      H1507   1.111       .  S
C1503      H1508   1.111       .  S
C1503      H1509   1.109       .  S
C1506      H1510   1.103       .  S
C1506      H1511   1.104       .  S
C1506      H1512   1.111       .  S
C1513      C3266   1.407   1_455  A
C1513      C1518   1.401       .  A
C1513      H1520   1.083       .  S
C1514      C3265   1.407       .  A
C1514      C1515   1.423       .  A
C1515      C1522   1.508       .  S
C1515      C1516   1.409       .  A
C1516      C1517   1.401       .  A
C1516      H1521   1.083       .  S
C1517      C3270   1.408       .  A
C1518      C1519   1.503       .  S
C1518      C3269   1.408   1_455  A
C1519      H1523   1.111       .  S
C1519      H1524   1.108       .  S
C1519      H1525   1.109       .  S
C1522      H1526   1.109       .  S
C1522      H1527   1.111       .  S
C1522      H1528   1.111       .  S
C1529      C1530   1.407       .  A
C1529      C1534   1.409       .  A
C1529      H1536   1.084       .  S
C1530      C1531   1.423       .  A
C1531      C1538   1.504       .  S
C1531      C1532   1.402       .  A
C1532      C1533   1.396       .  A
C1532      H1537   1.085       .  S
C1533      C1534   1.411       .  A
C1534      C1535   1.506       .  S
C1535      H1539   1.111       .  S
C1535      H1540   1.110       .  S
C1535      H1541   1.110       .  S
C1538      H1542   1.100       .  S
C1538      H1543   1.110       .  S
C1538      H1544   1.111       .  S
C1545      C1546   1.407       .  A
C1545      C1550   1.403       .  A
C1545      H1552   1.084       .  S
C1546      C1547   1.417       .  A
C1547      C1554   1.507       .  S
C1547      C1548   1.408       .  A
C1548      C1549   1.403       .  A
C1548      H1553   1.081       .  S
C1549      C1550   1.411       .  A
C1550      C1551   1.508       .  S
C1551      H1555   1.111       .  S
C1551      H1556   1.111       .  S
C1551      H1557   1.108       .  S
C1554      H1558   1.110       .  S
C1554      H1559   1.110       .  S
C1554      H1560   1.111       .  S
C1561      C1562   1.405   1_565  A
C1561      C1566   1.412       .  A
C1561      H1568   1.082       .  S
C1563      C1570   1.507       .  S
C1563      C1564   1.403       .  A
C1564      H1569   1.084       .  S
C1565      C1566   1.418       .  A
C1566      C1567   1.507       .  S
C1567      H1571   1.111       .  S
C1567      H1573   1.109       .  S
C1570      H1574   1.106       .  S
C1570      H1576   1.111       .  S
C1577      C1578   1.406   1_565  A
C1577      C1582   1.410       .  A
C1577      H1584   1.084       .  S
C1579      C1586   1.509       .  S
C1579      C1580   1.403       .  A
C1580      H1585   1.085       .  S
C1581      C1582   1.412       .  A
C1582      C1583   1.506       .  S
C1583      H1587   1.111       .  S
C1583      H1589   1.110       .  S
C1586      H1590   1.110       .  S
C1586      H1592   1.111       .  S
C1593      C1594   1.415       .  A
C1593      C1598   1.404       .  A
C1593      H1600   1.077       .  S
C1594      C1595   1.429       .  A
C1595      C1602   1.509       .  S
C1595      C1596   1.408       .  A
C1596      C1597   1.398       .  A
C1596      H1601   1.085       .  S
C1597      C1598   1.408       .  A
C1598      C1599   1.508       .  S
C1599      H1603   1.111       .  S
C1599      H1604   1.110       .  S
C1599      H1605   1.110       .  S
C1602      H1606   1.111       .  S
C1602      H1607   1.103       .  S
C1602      H1608   1.110       .  S
C1609      C1610   1.399       .  A
C1609      C1614   1.404       .  A
C1609      H1616   1.084       .  S
C1610      C1611   1.407       .  A
C1611      C1618   1.503       .  S
C1611      C1612   1.400       .  A
C1612      C1613   1.407       .  A
C1612      H1617   1.084       .  S
C1613      C1614   1.422       .  A
C1614      C1615   1.508       .  S
C1615      H1619   1.111       .  S
C1615      H1620   1.110       .  S
C1615      H1621   1.110       .  S
C1618      H1622   1.109       .  S
C1618      H1623   1.108       .  S
C1618      H1624   1.111       .  S
C1625      C1626   1.407       .  A
C1625      C1630   1.401       .  A
C1625      H1632   1.083       .  S
C1626      C1627   1.422       .  A
C1627      C1634   1.506       .  S
C1627      C1628   1.404       .  A
C1628      C1629   1.399       .  A
C1628      H1633   1.084       .  S
C1629      C1630   1.410       .  A
C1630      C1631   1.507       .  S
C1631      H1635   1.110       .  S
C1631      H1636   1.111       .  S
C1631      H1637   1.108       .  S
C1634      H1638   1.110       .  S
C1634      H1639   1.105       .  S
C1634      H1640   1.111       .  S
C1641      C1642   1.400       .  A
C1641      C1646   1.405       .  A
C1641      H1648   1.084       .  S
C1642      C1643   1.412       .  A
C1643      C1650   1.508       .  S
C1643      C1644   1.401       .  A
C1644      C1645   1.406       .  A
C1644      H1649   1.084       .  S
C1645      C1646   1.422       .  A
C1646      C1647   1.509       .  S
C1647      H1651   1.111       .  S
C1647      H1652   1.110       .  S
C1647      H1653   1.110       .  S
C1650      H1654   1.111       .  S
C1650      H1655   1.108       .  S
C1650      H1656   1.110       .  S
C1657      C1658   1.399       .  A
C1657      C1662   1.401       .  A
C1657      H1664   1.084       .  S
C1658      C1659   1.412       .  A
C1659      C1666   1.507       .  S
C1659      C1660   1.403       .  A
C1660      C1661   1.408       .  A
C1660      H1665   1.084       .  S
C1661      C1662   1.420       .  A
C1662      C1663   1.508       .  S
C1663      H1667   1.111       .  S
C1663      H1668   1.110       .  S
C1663      H1669   1.110       .  S
C1666      H1670   1.110       .  S
C1666      H1671   1.108       .  S
C1666      H1672   1.110       .  S
C1673      C1674   1.407       .  A
C1673      C1678   1.404       .  A
C1673      H1680   1.084       .  S
C1674      C1675   1.424       .  A
C1675      C1682   1.508       .  S
C1675      C1676   1.405       .  A
C1676      C1677   1.398       .  A
C1676      H1681   1.084       .  S
C1677      C1678   1.410       .  A
C1678      C1679   1.506       .  S
C1679      H1683   1.111       .  S
C1679      H1684   1.110       .  S
C1679      H1685   1.110       .  S
C1682      H1686   1.110       .  S
C1682      H1687   1.109       .  S
C1682      H1688   1.111       .  S
C1689      C1690   1.397   1_545  A
C1689      C1694   1.402       .  A
C1689      H1696   1.085       .  S
C1690      C1691   1.412       .  A
C1691      C1698   1.506       .  S
C1691      C1692   1.406       .  A
C1692      C1693   1.402   1_565  A
C1693      C1694   1.423       .  A
C1694      C1695   1.510       .  S
C1695      H1699   1.111   1_545  S
C1695      H1701   1.106       .  S
C1698      H1703   1.110       .  S
C1705      C1706   1.404       .  A
C1705      C1710   1.409       .  A
C1705      H1712   1.084       .  S
C1707      C1714   1.508       .  S
C1707      C1708   1.407       .  A
C1708      H1713   1.084       .  S
C1709      C1710   1.414   1_545  A
C1710      C1711   1.502       .  S
C1711      H1715   1.110       .  S
C1711      H1716   1.109       .  S
C1711      H1717   1.109       .  S
C1714      H1719   1.109       .  S
C1714      H1720   1.111       .  S
C1721      C1722   1.400       .  A
C1721      C1726   1.405       .  A
C1721      H1728   1.084       .  S
C1722      C1723   1.413       .  A
C1723      C1730   1.512       .  S
C1723      C1724   1.400       .  A
C1724      C1725   1.412       .  A
C1724      H1729   1.073       .  S
C1725      C1726   1.431       .  A
C1726      C1727   1.516       .  S
C1727      H1731   1.111       .  S
C1727      H1732   1.106       .  S
C1727      H1733   1.106       .  S
C1730      H1734   1.111       .  S
C1730      H1735   1.109       .  S
C1730      H1736   1.111       .  S
C1737      C1738   1.402       .  A
C1737      C1742   1.402       .  A
C1737      H1744   1.084       .  S
C1738      C1739   1.413       .  A
C1739      C1746   1.506       .  S
C1739      C1740   1.406       .  A
C1740      C1741   1.406       .  A
C1740      H1745   1.084       .  S
C1741      C1742   1.418       .  A
C1742      C1743   1.508       .  S
C1743      H1747   1.111       .  S
C1743      H1748   1.110       .  S
C1743      H1749   1.110       .  S
C1746      H1750   1.107       .  S
C1746      H1751   1.108       .  S
C1746      H1752   1.111       .  S
C1753      C1754   1.546       .  S
C1753      C1759   1.533       .  S
C1753      C1757   1.539       .  S
C1753      C2601   1.543       .  S
C1754      H1761   1.080       .  S
C1754      C2631   1.365       .  D
C1755      C1756   1.545       .  S
C1755      C2630   1.365       .  D
C1755      C2569   1.488       .  S
C1756      C1760   1.546       .  S
C1756      C1758   1.537       .  S
C1756      H1762   1.109       .  S
C1757      H2639   1.087       .  S
C1757      C2634   1.364   1_545  D
C1758      C2633   1.364       .  D
C1758      C2614   1.487       .  S
C1759      H1764   1.084       .  S
C1759      C2636   1.362       .  D
C1760      C2635   1.362       .  D
C1760      C2585   1.489       .  S
H1763      C2633   1.087       .  S
N1765      C1770   1.353       .  A
N1765      C1769   1.353   1_554  A
N1765      H1797   1.036       .  S
N1766      C1774   1.352       .  A
N1767      C1772   1.353   1_556  A
N1767      C1771   1.352       .  A
N1767      H1798   1.038   1_556  S
N1768      C1776   1.351       .  A
C1769      C1777   1.387       .  A
C1769      C1785   1.417       .  A
C1770      C1786   1.417       .  A
C1770      C1778   1.387       .  A
C1771      C1779   1.387       .  A
C1771      C1788   1.414       .  A
C1772      C1787   1.414       .  A
C1772      C1780   1.387       .  A
C1773      C1785   1.415       .  A
C1773      C1781   1.387       .  A
C1774      C1788   1.413       .  A
C1774      C1782   1.386       .  A
C1775      C1783   1.386       .  A
C1775      C1786   1.414       .  A
C1776      C1784   1.386       .  A
C1776      C1787   1.413       .  A
C1777      C1778   1.376   1_556  A
C1777      H1789   1.082       .  S
C1778      H1790   1.082       .  S
C1779      C1780   1.375   1_556  A
C1779      H1791   1.082       .  S
C1780      H1792   1.082       .  S
C1781      H1793   1.082       .  S
C1782      H1794   1.082       .  S
C1783      H1795   1.082       .  S
C1784      H1796   1.082       .  S
C1785      C2553   1.488       .  S
C1786      C2518   1.486       .  S
C1787      C2505   1.484       .  S
C1788      C2534   1.485       .  S
C1799      C1800   1.534       .  S
C1799      C1805   1.538       .  S
C1799      C1803   1.549       .  S
C1799      C2470   1.546       .  S
C1800      H1807   1.086       .  S
C1800      C2677   1.367       .  D
C1801      C1802   1.547       .  S
C1801      C2676   1.367       .  D
C1801      C2454   1.495       .  S
C1802      C1806   1.546       .  S
C1802      C1804   1.532       .  S
C1802      H1808   1.111       .  S
C1803      H2685   1.083       .  S
C1803      C2680   1.362   1_545  D
C1804      C2679   1.362       .  D
C1804      C2486   1.476       .  S
C1805      H1810   1.086       .  S
C1805      C2682   1.367       .  D
C1806      C2681   1.368       .  D
C1806      C2438   1.490       .  S
H1809      C2679   1.083       .  S
C1811      C1812   1.548   1_455  S
C1811      C1815   1.544   1_455  S
C1811      C2374   1.554       .  S
C1812      H1819   1.081       .  S
C1812      C1813   1.368       .  D
C1813      C2425   1.487       .  S
C1814      C1818   1.543       .  S
C1814      H1820   1.111       .  S
C1815      C1816   1.366   1_655  D
C1816      C2393   1.484   1_455  S
C1817      H1822   1.086       .  S
C1817      C1818   1.369       .  D
C1818      C2406   1.498       .  S
N1823      C1828   1.354       .  A
N1823      C1827   1.354   1_554  A
N1823      H1855   1.038       .  S
N1824      C2707   1.352   1_545  A
N1824      C1832   1.353       .  A
N1825      C1830   1.353       .  A
N1825      C1829   1.353   1_554  A
N1825      H1856   1.038       .  S
N1826      C2709   1.352   1_545  A
N1826      C1834   1.353       .  A
C1827      C1835   1.387       .  A
C1827      C1843   1.417       .  A
C1828      C1844   1.417       .  A
C1828      C1836   1.387       .  A
C1829      C1837   1.387       .  A
C1829      C1846   1.414       .  A
C1830      C1845   1.415       .  A
C1830      C1838   1.387       .  A
C1831      N2700   1.352       .  A
C1831      C1843   1.416       .  A
C1831      C1839   1.387       .  A
C1832      C1846   1.413       .  A
C1832      C1840   1.385       .  A
C1833      N2702   1.352       .  A
C1833      C1841   1.387       .  A
C1833      C1844   1.417       .  A
C1834      C1842   1.386       .  A
C1834      C1845   1.415       .  A
C1835      C1836   1.378   1_556  A
C1835      H1847   1.082       .  S
C1836      H1848   1.082       .  S
C1837      C1838   1.375   1_556  A
C1837      H1849   1.082       .  S
C1838      H1850   1.082       .  S
C1839      C2716   1.371       .  A
C1839      H1851   1.082       .  S
C1840      C2715   1.372   1_545  A
C1840      H1852   1.082       .  S
C1841      C2718   1.372       .  A
C1841      H1853   1.082       .  S
C1842      C2717   1.372   1_545  A
C1842      H1854   1.082       .  S
C1843      C2361   1.492       .  S
C1844      C2326   1.490       .  S
C1845      C2310   1.489       .  S
C1846      C2345   1.489       .  S
N1857      N1858   1.322       .  A
N1857      N1863   1.314       .  A
N1857     Mn1886   2.204       .  S
N1858      C1865   1.355       .  A
N1859      N1861   1.315       .  A
N1859      N1860   1.319       .  A
N1859     Mn1875   2.197       .  S
N1860      C1866   1.353       .  A
N1861      N1862   1.318       .  A
N1861     Mn1886   2.204       .  S
N1862      C1866   1.355       .  A
N1863      N1864   1.320       .  A
N1863     Mn1875   2.200       .  S
N1864      C1865   1.353       .  A
C1865      C2358   1.488       .  S
C1866      C2489   1.489       .  S
N1867      N1873   1.316       .  A
N1867      N1868   1.319       .  A
N1867     Mn1897   2.205       .  S
N1868      C1876   1.354       .  A
N1869      N1870   1.318       .  A
N1869      N1871   1.315       .  A
N1869     Mn1875   2.190       .  S
N1870      C1877   1.351       .  A
N1871      N1872   1.323       .  A
N1871     Mn1897   2.221       .  S
N1872      C1877   1.358       .  A
N1873      N1874   1.323       .  A
N1873     Mn1875   2.210       .  S
N1874      C1876   1.356       .  A
Mn1875    Cl1899   2.551       .  S
C1876      C2422   1.490       .  S
C1877      C2550   1.492       .  S
N1878      N1879   1.323       .  A
N1878      N1884   1.317       .  A
N1878     Mn1886   2.211       .  S
N1879      C1887   1.354       .  A
N1880      N1882   1.314       .  A
N1880      N1881   1.318       .  A
N1880     Mn1898   2.200       .  S
N1881      C1888   1.353       .  A
N1882      N1883   1.321       .  A
N1882     Mn1886   2.196       .  S
N1883      C1888   1.354       .  A
N1884      N1885   1.320       .  A
N1884     Mn1898   2.207       .  S
N1885      C1887   1.351       .  A
Mn1886    Cl1899   2.552       .  S
C1887      C2409   1.476       .  S
C1888      C2537   1.485       .  S
N1889      N1890   1.318       .  A
N1889      N1895   1.313       .  A
N1889     Mn1897   2.193       .  S
N1890      C1900   1.351       .  A
N1891      N1892   1.320       .  A
N1891      N1893   1.318       .  A
N1891     Mn1898   2.201       .  S
N1892      C1901   1.351       .  A
N1893      N1894   1.324       .  A
N1893     Mn1897   2.231       .  S
N1894      C1901   1.357       .  A
N1895      N1896   1.323       .  A
N1895     Mn1898   2.209       .  S
N1896      C1900   1.358       .  A
Mn1897    Cl1899   2.547       .  S
Mn1898    Cl1899   2.545       .  S
C1900      C2342   1.495       .  S
C1901      C2473   1.479       .  S
N1902      N1903   1.320       .  A
N1902      N1908   1.317       .  A
N1902     Mn1931   2.212       .  S
N1903      C1910   1.354       .  A
N1904      N1906   1.315       .  A
N1904      N1905   1.321       .  A
N1904     Mn1920   2.204       .  S
N1905      C1911   1.354       .  A
N1906      N1907   1.321       .  A
N1906     Mn1931   2.207       .  S
N1907      C1911   1.354       .  A
N1908      N1909   1.320       .  A
N1908     Mn1920   2.205       .  S
N1909      C1910   1.354       .  A
C1910      C2617   1.487       .  S
C1911      C2329   1.491       .  S
N1912      N1918   1.314       .  A
N1912      N1913   1.322       .  A
N1912     Mn1942   2.205       .  S
N1913      C1921   1.357       .  A
N1914      N1915   1.325       .  A
N1914      N1916   1.317       .  A
N1914     Mn1920   2.224       .  S
N1915      C1922   1.357       .  A
N1916      N1917   1.321       .  A
N1916     Mn1942   2.208       .  S
N1917      C1922   1.351       .  A
N1918      N1919   1.318       .  A
N1918     Mn1920   2.192       .  S
N1919      C1921   1.351       .  A
Mn1920    Cl1944   2.550       .  S
C1921      C2521   1.489       .  S
C1922      C2294   1.482       .  S
N1923      N1924   1.321       .  A
N1923      N1929   1.314       .  A
N1923     Mn1931   2.207       .  S
N1924      C1932   1.356       .  A
N1925      N1927   1.316       .  A
N1925      N1926   1.319       .  A
N1925     Mn1943   2.205       .  S
N1926      C1933   1.354       .  A
N1927      N1928   1.324       .  A
N1927     Mn1931   2.218       .  S
N1928      C1933   1.357       .  A
N1929      N1930   1.319       .  A
N1929     Mn1943   2.197       .  S
N1930      C1932   1.353       .  A
Mn1931    Cl1944   2.551       .  S
C1932      C2502   1.490       .  S
C1933      C2278   1.494       .  S
N1934      N1935   1.315       .  A
N1934      N1940   1.316       .  A
N1934     Mn1942   2.191       .  S
N1935      C1945   1.349       .  A
N1936      N1937   1.319       .  A
N1936      N1938   1.314       .  A
N1936     Mn1943   2.193       .  S
N1937      C1946   1.352       .  A
N1938      N1939   1.322       .  A
N1938     Mn1942   2.208       .  S
N1939      C1946   1.357       .  A
N1940      N1941   1.322       .  A
N1940     Mn1943   2.208       .  S
N1941      C1945   1.357       .  A
Mn1942    Cl1944   2.547       .  S
Mn1943    Cl1944   2.549       .  S
C1945      C2598   1.483       .  S
C1946      C2313   1.493       .  S
N1947      N1948   1.322       .  A
N1947     Mn1976   2.214       .  S
N1948      C1955   1.355       .  A
N1949      N1950   1.321       .  A
N1949     Mn1965   2.208       .  S
N1951      N1952   1.322       .  A
N1951     Mn1976   2.209       .  S
N1952      C1956   1.355       .  A
N1953      N1954   1.321       .  A
N1953     Mn1965   2.207       .  S
C1955      C2377   1.485   1_655  S
C1956      C2246   1.495       .  S
N1957      N2839   1.314       .  A
N1957      N1958   1.319       .  A
N1957     Mn1987   2.194       .  S
N1958      C1966   1.351       .  A
N1959      N1960   1.320       .  A
N1959      N2837   1.317   1_545  A
N1959     Mn1965   2.205       .  S
N1960      C2843   1.351   1_545  A
N1961      N2835   1.317       .  A
N1961      N1962   1.323       .  A
N1961     Mn1987   2.216       .  S
N1962      C1967   1.355       .  A
N1963      N2833   1.314       .  A
N1963      N1964   1.320   1_565  A
N1963     Mn1965   2.207   1_565  S
N1964      C2842   1.356   1_545  A
C1966      N2840   1.357       .  A
C1966      C2214   1.486       .  S
C1967      N2836   1.351       .  A
C1967      C2457   1.477       .  S
N1968      N1969   1.318   1_565  A
N1968      N2850   1.314       .  A
N1968     Mn1976   2.199   1_565  S
N1969      C2853   1.352   1_545  A
N1970      N2848   1.316       .  A
N1970      N1971   1.324       .  A
N1970     Mn1988   2.214       .  S
N1971      C1978   1.356       .  A
N1972      N2846   1.316   1_545  A
N1972      N1973   1.319       .  A
N1972     Mn1976   2.208       .  S
N1973      C2854   1.355   1_545  A
N1974      N2844   1.314       .  A
N1974      N1975   1.321       .  A
N1974     Mn1988   2.201       .  S
N1975      C1977   1.355       .  A
Mn1976    Cl2865   2.544   1_545  S
C1977      N2845   1.352       .  A
C1977      C2230   1.487       .  S
C1978      N2849   1.355       .  A
C1978      C2441   1.492       .  S
N1979      N1980   1.320       .  A
N1979     Mn1987   2.212       .  S
N1981      N1982   1.322       .  A
N1981     Mn1988   2.209       .  S
N1982      C1991   1.355       .  A
N1983      N1984   1.320       .  A
N1983     Mn1987   2.201       .  S
N1985      N1986   1.321       .  A
N1985     Mn1988   2.208       .  S
N1986      C1990   1.355       .  A
Mn1988    Cl1989   2.555       .  S
Cl1989    Mn2852   2.544       .  S
C1990      C2390   1.496       .  S
C1991      C2262   1.494       .  S
N1992      N1993   1.325       .  A
N1992      N2874   1.316       .  A
N1992     Mn2021   2.220       .  S
N1993      C2000   1.357       .  A
N1994      N2872   1.314   1_545  A
N1994      N1995   1.321       .  A
N1994     Mn2010   2.212       .  S
N1995      C2877   1.356   1_545  A
N1996      N2870   1.314       .  A
N1996      N1997   1.317       .  A
N1996     Mn2021   2.181       .  S
N1997      C2001   1.352       .  A
N1998      N2868   1.316   1_545  A
N1998      N1999   1.319       .  A
N1998     Mn2010   2.206       .  S
N1999      C2876   1.352   1_545  A
C2000      N2875   1.352       .  A
C2000      C2582   1.490       .  S
C2001      N2871   1.356       .  A
C2001      C2182   1.489       .  S
N2002      N2003   1.320       .  A
N2002     Mn2032   2.202       .  S
N2003      C2011   1.354   1_655  A
N2004      N2005   1.322       .  A
N2004     Mn2010   2.214       .  S
N2006      N2007   1.320       .  A
N2006     Mn2032   2.203       .  S
N2007      C2012   1.351   1_655  A
N2008      N2009   1.319       .  A
N2008     Mn2010   2.195       .  S
C2011      C2153   1.490       .  S
C2012      C2134   1.474       .  S
N2013      N2014   1.322       .  A
N2013     Mn2021   2.213       .  S
N2015      N2016   1.321       .  A
N2015     Mn2033   2.222       .  S
N2016      C2023   1.358   1_655  A
N2017      N2018   1.318       .  A
N2017     Mn2021   2.189       .  S
N2019      N2020   1.321       .  A
N2019     Mn2033   2.204       .  S
N2020      C2022   1.354   1_655  A
C2022      C2166   1.495       .  S
C2023      C2118   1.490       .  S
N2024      N2025   1.320       .  A
N2024      N2906   1.316   1_545  A
N2024     Mn2032   2.204       .  S
N2025      C2911   1.352   1_545  A
N2026      N2027   1.323       .  A
N2026      N2904   1.315       .  A
N2026     Mn2033   2.218       .  S
N2027      C2036   1.358       .  A
N2028      N2902   1.315       .  A
N2028      N2029   1.320   1_565  A
N2028     Mn2032   2.204   1_565  S
N2029      C2912   1.353   1_545  A
N2030      N2900   1.316       .  A
N2030      N2031   1.322       .  A
N2030     Mn2033   2.206       .  S
N2031      C2035   1.353       .  A
Mn2032    Cl2910   2.544   1_645  S
Mn2033    Cl2034   2.554   1_655  S
Cl2034    Mn2908   2.544   1_455  S
C2035      N2901   1.351       .  A
C2035      C2566   1.472       .  S
C2036      N2905   1.353       .  A
C2036      C2198   1.496       .  S
N2037      C2042   1.351       .  A
N2037      C2041   1.354       .  A
N2037      H2069   1.037   1_455  S
N2038      C2045   1.354       .  A
N2038      C2046   1.351       .  A
N2039      C2044   1.356   1_655  A
N2039      C2043   1.353   1_655  A
N2039      H2070   1.037       .  S
N2040      C2047   1.352       .  A
N2040      C2048   1.353       .  A
C2041      C2049   1.386       .  A
C2041      C2057   1.415   1_455  A
C2042      C2058   1.414       .  A
C2042      C2050   1.387       .  A
C2043      C2051   1.388       .  A
C2043      C2060   1.418   1_455  A
C2044      C2059   1.417       .  A
C2044      C2052   1.386       .  A
C2045      C2057   1.414       .  A
C2045      C2053   1.385       .  A
C2046      C2060   1.416       .  A
C2046      C2054   1.388       .  A
C2047      C2055   1.386   1_455  A
C2047      C2058   1.414       .  A
C2048      C2056   1.386   1_455  A
C2048      C2059   1.415       .  A
C2049      C2050   1.376       .  A
C2049      H2061   1.082       .  S
C2050      H2062   1.082       .  S
C2051      C2052   1.379       .  A
C2051      H2063   1.082       .  S
C2052      H2064   1.082       .  S
C2053      C2054   1.372       .  A
C2053      H2065   1.082       .  S
C2054      H2066   1.082       .  S
C2055      C2056   1.372       .  A
C2055      H2067   1.082       .  S
C2056      H2068   1.082       .  S
C2057      C2249   1.493       .  S
C2058      C2150   1.484       .  S
C2059      C2169   1.494       .  S
C2060      C2265   1.488       .  S
N2071      C2076   1.352       .  A
N2071      C2075   1.354       .  A
N2071      H2103   1.035       .  S
N2072      C2079   1.351       .  A
N2072      C2080   1.350       .  A
N2073      C2078   1.353       .  A
N2073      C2077   1.353       .  A
N2073      H2104   1.035       .  S
N2074      C2081   1.352       .  A
N2074      C2082   1.353       .  A
C2075      C2083   1.387       .  A
C2075      C2091   1.416       .  A
C2076      C2092   1.417       .  A
C2076      C2084   1.388       .  A
C2077      C2085   1.387       .  A
C2077      C2094   1.416       .  A
C2078      C2093   1.417       .  A
C2078      C2086   1.387       .  A
C2079      C2091   1.412       .  A
C2079      C2087   1.386       .  A
C2080      C2094   1.413       .  A
C2080      C2088   1.387       .  A
C2081      C2089   1.387       .  A
C2081      C2092   1.417       .  A
C2082      C2090   1.386       .  A
C2082      C2093   1.416       .  A
C2083      C2084   1.375       .  A
C2083      H2095   1.082       .  S
C2084      H2096   1.082       .  S
C2085      C2086   1.376       .  A
C2085      H2097   1.082       .  S
C2086      H2098   1.082       .  S
C2087      C2088   1.370       .  A
C2087      H2099   1.082       .  S
C2088      H2100   1.082       .  S
C2089      C2090   1.370       .  A
C2089      H2101   1.082       .  S
C2090      H2102   1.082       .  S
C2091      C2217   1.486       .  S
C2092      C2185   1.486       .  S
C2093      C2201   1.490       .  S
C2094      C2233   1.484       .  S
C2105      C2111   1.539       .  S
C2105      C2109   1.551       .  S
C2105      C2137   1.546       .  S
C2106      H2113   1.086       .  S
C2106      C2107   1.364       .  D
C2107      C2281   1.486       .  S
C2108      C2112   1.546       .  S
C2108      C2110   1.535       .  S
C2108      H2114   1.111       .  S
C2109      H2115   1.081       .  S
C2109      C2110   1.366       .  D
C2110      C2121   1.483       .  S
C2111      H2116   1.086       .  S
C2111      C2112   1.367       .  D
C2112      C2297   1.495       .  S
C2117      C2118   1.404   1_655  A
C2117      C2122   1.401       .  A
C2117      H2124   1.084       .  S
C2119      C2126   1.508       .  S
C2119      C2120   1.406       .  A
C2120      H2125   1.085       .  S
C2121      C2122   1.413       .  A
C2122      C2123   1.503       .  S
C2123      H2127   1.110       .  S
C2123      H2128   1.110       .  S
C2123      H2129   1.098       .  S
C2126      H2130   1.110       .  S
C2126      H2131   1.110       .  S
C2126      H2132   1.111       .  S
C2133      C2134   1.394   1_655  A
C2133      C2138   1.405       .  A
C2133      H2140   1.085       .  S
C2135      C2142   1.509       .  S
C2135      C2136   1.405       .  A
C2136      H2141   1.074       .  S
C2137      C2138   1.432       .  A
C2138      C2139   1.512       .  S
C2139      H2143   1.111   1_655  S
C2139      H2144   1.101       .  S
C2139      H2145   1.111       .  S
C2142      H2146   1.110       .  S
C2142      H2147   1.111       .  S
C2142      H2148   1.111       .  S
C2149      C2150   1.399   1_655  A
C2149      C2154   1.404       .  A
C2149      H2156   1.084       .  S
C2151      C2158   1.506       .  S
C2151      C2152   1.403       .  A
C2152      H2157   1.083       .  S
C2153      C2154   1.421   1_455  A
C2154      C2155   1.507       .  S
C2155      H2159   1.111       .  S
C2155      H2160   1.110       .  S
C2155      H2161   1.110       .  S
C2158      H2162   1.110       .  S
C2158      H2163   1.110       .  S
C2158      H2164   1.111       .  S
C2165      C2170   1.405       .  A
C2165      H2172   1.084       .  S
C2166      C2167   1.422   1_455  A
C2167      C2174   1.508       .  S
C2167      C2168   1.408       .  A
C2168      C2169   1.401   1_655  A
C2168      H2173   1.084       .  S
C2170      C2171   1.507       .  S
C2171      H2175   1.111       .  S
C2171      H2176   1.110       .  S
C2171      H2177   1.109       .  S
C2174      H2178   1.109       .  S
C2174      H2179   1.111       .  S
C2174      H2180   1.111       .  S
C2181      C2182   1.410       .  A
C2181      C2186   1.402       .  A
C2181      H2188   1.083       .  S
C2182      C2183   1.420       .  A
C2183      C2190   1.507       .  S
C2183      C2184   1.403       .  A
C2184      C2185   1.400       .  A
C2184      H2189   1.084       .  S
C2185      C2186   1.408       .  A
C2186      C2187   1.507       .  S
C2187      H2191   1.111       .  S
C2187      H2192   1.110       .  S
C2187      H3069   1.109       .  S
C2190      H2194   1.110       .  S
C2190      H3071   1.110       .  S
C2190      H2196   1.111       .  S
H2193      C3063   1.109       .  S
H2195      C3066   1.110       .  S
C2197      C2198   1.408       .  A
C2197      C2202   1.405       .  A
C2197      H2204   1.083       .  S
C2198      C2199   1.423       .  A
C2199      C3082   1.507       .  S
C2199      C2200   1.406       .  A
C2200      C2201   1.400       .  A
C2200      H3081   1.084       .  S
C2201      C2202   1.412       .  A
C2202      C2203   1.507       .  S
C2203      H2207   1.110       .  S
C2203      H3084   1.110       .  S
C2203      H2209   1.108       .  S
H2205      C3076   1.084       .  S
C2206      C3075   1.507       .  S
C2206      H2210   1.110       .  S
C2206      H3087   1.108       .  S
C2206      H2212   1.111       .  S
H2208      C3079   1.110       .  S
H2211      C3082   1.108       .  S
C2213      C2214   1.406       .  A
C2213      C2218   1.401       .  A
C2213      H2220   1.084       .  S
C2214      C2215   1.422       .  A
C2215      C2222   1.509       .  S
C2215      C2216   1.405       .  A
C2216      C2217   1.399       .  A
C2216      H2221   1.084       .  S
C2217      C2218   1.409       .  A
C2218      C2219   1.507       .  S
C2219      H3099   1.111       .  S
C2219      H2224   1.110       .  S
C2219      H3101   1.110       .  S
C2222      H2226   1.110       .  S
C2222      H3103   1.109       .  S
C2222      H2228   1.111       .  S
H2223      C3095   1.111       .  S
H2225      C3095   1.110       .  S
H2227      C3098   1.109       .  S
C2229      C2230   1.407       .  A
C2229      C2234   1.402       .  A
C2229      H2236   1.082       .  S
C2230      C3107   1.420       .  A
C2231      C2238   1.508       .  S
C2231      C3106   1.420   1_545  A
C2231      C2232   1.402   1_545  A
C2232      C3109   1.399       .  A
C2232      H2237   1.084   1_565  S
C2233      C3108   1.399       .  A
C2233      C2234   1.410       .  A
C2234      C2235   1.507       .  S
C2235      H2239   1.110       .  S
C2235      H3116   1.110       .  S
C2235      H2241   1.108       .  S
C2238      H2242   1.109       .  S
C2238      H3119   1.110       .  S
C2238      H2244   1.111       .  S
H2240      C3111   1.110       .  S
H2243      C3114   1.110       .  S
C2245      C2250   1.404       .  A
C2245      H2252   1.083       .  S
C2246      C2247   1.421       .  A
C2247      C2254   1.507       .  S
C2247      C2248   1.409       .  A
C2248      C2249   1.402       .  A
C2248      H2253   1.084       .  S
C2250      C2251   1.506       .  S
C2251      H2255   1.111       .  S
C2251      H2256   1.110       .  S
C2251      H2257   1.110       .  S
C2254      H2258   1.109       .  S
C2254      H2259   1.110       .  S
C2254      H2260   1.111       .  S
C2261      C2266   1.403       .  A
C2261      H2268   1.083       .  S
C2262      C2263   1.422       .  A
C2263      C2270   1.505       .  S
C2263      C2264   1.407       .  A
C2264      C2265   1.400       .  A
C2264      H2269   1.084       .  S
C2266      C2267   1.507       .  S
C2267      H2271   1.111       .  S
C2267      H2272   1.110       .  S
C2267      H2273   1.110       .  S
C2270      H2274   1.110       .  S
C2270      H2275   1.110       .  S
C2270      H2276   1.111       .  S
C2277      C2278   1.408       .  A
C2277      C2282   1.404       .  A
C2277      H2284   1.083       .  S
C2278      C2279   1.419       .  A
C2279      C2286   1.506       .  S
C2279      C2280   1.409       .  A
C2280      C2281   1.403       .  A
C2280      H2285   1.084       .  S
C2281      C2282   1.412       .  A
C2282      C2283   1.509       .  S
C2283      H2287   1.111       .  S
C2283      H2288   1.111       .  S
C2283      H2289   1.107       .  S
C2286      H2290   1.110       .  S
C2286      H2291   1.110       .  S
C2286      H2292   1.111       .  S
C2293      C2294   1.400       .  A
C2293      C2298   1.407       .  A
C2293      H2300   1.085       .  S
C2294      C2295   1.412       .  A
C2295      C2302   1.505       .  S
C2295      C2296   1.408       .  A
C2296      C2297   1.404       .  A
C2296      H2301   1.084       .  S
C2297      C2298   1.423       .  A
C2298      C2299   1.509       .  S
C2299      H2303   1.111       .  S
C2299      H2304   1.106       .  S
C2299      H2305   1.110       .  S
C2302      H2306   1.110       .  S
C2302      H2307   1.110       .  S
C2302      H2308   1.111       .  S
C2309      C2310   1.399       .  A
C2309      C2314   1.405       .  A
C2309      H2316   1.084       .  S
C2310      C2311   1.412       .  A
C2311      C2318   1.507       .  S
C2311      C2312   1.402       .  A
C2312      C2313   1.407       .  A
C2312      H2317   1.084       .  S
C2313      C2314   1.423       .  A
C2314      C2315   1.505       .  S
C2315      H2319   1.111       .  S
C2315      H2320   1.109       .  S
C2315      H2321   1.110       .  S
C2318      H2322   1.108       .  S
C2318      H2323   1.110       .  S
C2318      H2324   1.111       .  S
C2325      C2326   1.400       .  A
C2325      C2330   1.406       .  A
C2325      H2332   1.084       .  S
C2326      C2327   1.410       .  A
C2327      C2334   1.506       .  S
C2327      C2328   1.404       .  A
C2328      C2329   1.408       .  A
C2328      H2333   1.084       .  S
C2329      C2330   1.421       .  A
C2330      C2331   1.506       .  S
C2331      H2335   1.110       .  S
C2331      H2336   1.109       .  S
C2331      H2337   1.111       .  S
C2334      H2338   1.110       .  S
C2334      H2339   1.111       .  S
C2334      H2340   1.111       .  S
C2341      C2342   1.408       .  A
C2341      C2346   1.404       .  A
C2341      H2348   1.083       .  S
C2342      C2343   1.425       .  A
C2343      C2350   1.508       .  S
C2343      C2344   1.406       .  A
C2344      C2345   1.399       .  A
C2344      H2349   1.084       .  S
C2345      C2346   1.408       .  A
C2346      C2347   1.506       .  S
C2347      H2351   1.111       .  S
C2347      H2352   1.110       .  S
C2347      H2353   1.110       .  S
C2350      H2354   1.110       .  S
C2350      H2355   1.110       .  S
C2350      H2356   1.111       .  S
C2357      C2358   1.407       .  A
C2357      C2362   1.405       .  A
C2357      H2364   1.084       .  S
C2358      C2359   1.419       .  A
C2359      C2366   1.508       .  S
C2359      C2360   1.405       .  A
C2360      C2361   1.402       .  A
C2360      H2365   1.084       .  S
C2361      C2362   1.411       .  A
C2362      C2363   1.507       .  S
C2363      H2367   1.111       .  S
C2363      H2368   1.110       .  S
C2363      H2369   1.109       .  S
C2366      H2370   1.110       .  S
C2366      H2371   1.108       .  S
C2366      H2372   1.111       .  S
C2373      C2374   1.417   1_655  A
C2373      C2378   1.408       .  A
C2373      H2380   1.076       .  S
C2375      C2382   1.511       .  S
C2375      C2376   1.407       .  A
C2376      H2381   1.084       .  S
C2377      C2378   1.409   1_455  A
C2378      C2379   1.509       .  S
C2379      H2383   1.111       .  S
C2379      H2384   1.111       .  S
C2379      H2385   1.109       .  S
C2382      H2386   1.103       .  S
C2382      H2387   1.104       .  S
C2382      H2388   1.111       .  S
C2389      C2394   1.401       .  A
C2389      H2396   1.083       .  S
C2390      C2391   1.423       .  A
C2391      C2398   1.508       .  S
C2391      C2392   1.410       .  A
C2392      C2393   1.401       .  A
C2392      H2397   1.083       .  S
C2394      C2395   1.503       .  S
C2395      H2399   1.111       .  S
C2395      H2400   1.109       .  S
C2395      H2401   1.109       .  S
C2398      H2402   1.109       .  S
C2398      H2403   1.111       .  S
C2398      H2404   1.111       .  S
C2405      C2406   1.407       .  A
C2405      C2410   1.408       .  A
C2405      H2412   1.084       .  S
C2406      C2407   1.423       .  A
C2407      C2414   1.504       .  S
C2407      C2408   1.402       .  A
C2408      C2409   1.396       .  A
C2408      H2413   1.085       .  S
C2409      C2410   1.411       .  A
C2410      C2411   1.506       .  S
C2411      H2415   1.111       .  S
C2411      H2416   1.110       .  S
C2411      H2417   1.110       .  S
C2414      H2418   1.100       .  S
C2414      H2419   1.110       .  S
C2414      H2420   1.111       .  S
C2421      C2422   1.407       .  A
C2421      C2426   1.403       .  A
C2421      H2428   1.084       .  S
C2422      C2423   1.417       .  A
C2423      C2430   1.507       .  S
C2423      C2424   1.408       .  A
C2424      C2425   1.403       .  A
C2424      H2429   1.081       .  S
C2425      C2426   1.412       .  A
C2426      C2427   1.508       .  S
C2427      H2431   1.111       .  S
C2427      H2432   1.111       .  S
C2427      H2433   1.108       .  S
C2430      H2434   1.110       .  S
C2430      H2435   1.110       .  S
C2430      H2436   1.111       .  S
C2437      C2438   1.405       .  A
C2437      C2442   1.412       .  A
C2437      H2444   1.082       .  S
C2438      C3315   1.412       .  A
C2439      C2446   1.507       .  S
C2439      C3314   1.412       .  A
C2439      C2440   1.403       .  A
C2440      C3317   1.406   1_545  A
C2440      H2445   1.084       .  S
C2441      C3316   1.406       .  A
C2441      C2442   1.418       .  A
C2442      C2443   1.507       .  S
C2443      H2447   1.111       .  S
C2443      H3324   1.111       .  S
C2443      H2449   1.109       .  S
C2446      H2450   1.106       .  S
C2446      H3327   1.111       .  S
C2446      H2452   1.111       .  S
H2448      C3319   1.111       .  S
H2451      C3322   1.111       .  S
C2453      C2454   1.406       .  A
C2453      C2458   1.410       .  A
C2453      H2460   1.084       .  S
C2454      C3331   1.424       .  A
C2455      C2462   1.509       .  S
C2455      C3330   1.424       .  A
C2455      C2456   1.403       .  A
C2456      C3333   1.396   1_545  A
C2456      H2461   1.085       .  S
C2457      C3332   1.396       .  A
C2457      C2458   1.412       .  A
C2458      C2459   1.506       .  S
C2459      H2463   1.111       .  S
C2459      H3340   1.111       .  S
C2459      H2465   1.110       .  S
C2462      H2466   1.110       .  S
C2462      H3343   1.103       .  S
C2462      H2468   1.111   1_545  S
H2464      C3335   1.111   1_545  S
H2467      C3338   1.103       .  S
C2469      C2470   1.415       .  A
C2469      C2474   1.404       .  A
C2469      H2476   1.077       .  S
C2470      C2471   1.429       .  A
C2471      C2478   1.509       .  S
C2471      C2472   1.408       .  A
C2472      C2473   1.398       .  A
C2472      H2477   1.085       .  S
C2473      C2474   1.408       .  A
C2474      C2475   1.508       .  S
C2475      H2479   1.111       .  S
C2475      H2480   1.110       .  S
C2475      H2481   1.110       .  S
C2478      H2482   1.111       .  S
C2478      H2483   1.103       .  S
C2478      H2484   1.110       .  S
C2485      C2486   1.399       .  A
C2485      C2490   1.404       .  A
C2485      H2492   1.084       .  S
C2486      C2487   1.407       .  A
C2487      C2494   1.503       .  S
C2487      C2488   1.400       .  A
C2488      C2489   1.407       .  A
C2488      H2493   1.084       .  S
C2489      C2490   1.422       .  A
C2490      C2491   1.508       .  S
C2491      H2495   1.111       .  S
C2491      H2496   1.110       .  S
C2491      H2497   1.110       .  S
C2494      H2498   1.110       .  S
C2494      H2499   1.108       .  S
C2494      H2500   1.111       .  S
C2501      C2502   1.407       .  A
C2501      C2506   1.401       .  A
C2501      H2508   1.083       .  S
C2502      C2503   1.422       .  A
C2503      C2510   1.506       .  S
C2503      C2504   1.404       .  A
C2504      C2505   1.399       .  A
C2504      H2509   1.084       .  S
C2505      C2506   1.410       .  A
C2506      C2507   1.507       .  S
C2507      H2511   1.110       .  S
C2507      H2512   1.111       .  S
C2507      H2513   1.108       .  S
C2510      H2514   1.110       .  S
C2510      H2515   1.105       .  S
C2510      H2516   1.111       .  S
C2517      C2518   1.400       .  A
C2517      C2522   1.405       .  A
C2517      H2524   1.084       .  S
C2518      C2519   1.412       .  A
C2519      C2526   1.508       .  S
C2519      C2520   1.401       .  A
C2520      C2521   1.406       .  A
C2520      H2525   1.084       .  S
C2521      C2522   1.423       .  A
C2522      C2523   1.509       .  S
C2523      H2527   1.111       .  S
C2523      H2528   1.110       .  S
C2523      H2529   1.110       .  S
C2526      H2530   1.111       .  S
C2526      H2531   1.108       .  S
C2526      H2532   1.110       .  S
C2533      C2534   1.399       .  A
C2533      C2538   1.401       .  A
C2533      H2540   1.084       .  S
C2534      C2535   1.412       .  A
C2535      C2542   1.507       .  S
C2535      C2536   1.403       .  A
C2536      C2537   1.408       .  A
C2536      H2541   1.084       .  S
C2537      C2538   1.420       .  A
C2538      C2539   1.508       .  S
C2539      H2543   1.111       .  S
C2539      H2544   1.110       .  S
C2539      H2545   1.110       .  S
C2542      H2546   1.110       .  S
C2542      H2547   1.108       .  S
C2542      H2548   1.110       .  S
C2549      C2550   1.407       .  A
C2549      C2554   1.404       .  A
C2549      H2556   1.084       .  S
C2550      C2551   1.424       .  A
C2551      C2558   1.508       .  S
C2551      C2552   1.405       .  A
C2552      C2553   1.398       .  A
C2552      H2557   1.084       .  S
C2553      C2554   1.410       .  A
C2554      C2555   1.506       .  S
C2555      H2559   1.111       .  S
C2555      H2560   1.110       .  S
C2555      H2561   1.110       .  S
C2558      H2562   1.110       .  S
C2558      H2563   1.109       .  S
C2558      H2564   1.111       .  S
C2565      C2566   1.397       .  A
C2565      C2570   1.402       .  A
C2565      H2572   1.085       .  S
C2566      C2567   1.412       .  A
C2567      C2574   1.506       .  S
C2567      C2568   1.406       .  A
C2568      C2569   1.402       .  A
C2568      H3449   1.084       .  S
C2569      C2570   1.423       .  A
C2570      C2571   1.510       .  S
C2571      H2575   1.111       .  S
C2571      H3452   1.110       .  S
C2571      H2577   1.106       .  S
H2573      C3444   1.084       .  S
C2574      H3454   1.110       .  S
C2574      H2579   1.110       .  S
C2574      H3456   1.111       .  S
H2576      C3447   1.110       .  S
H2578      C3450   1.110       .  S
H2580      C3450   1.111       .  S
C2581      C2582   1.403       .  A
C2581      C2586   1.409       .  A
C2581      H2588   1.084       .  S
C2582      C3459   1.420       .  A
C2583      C2590   1.508       .  S
C2583      C3458   1.420   1_545  A
C2583      C2584   1.407       .  A
C2584      C3461   1.401       .  A
C2584      H2589   1.084       .  S
C2585      C3460   1.401       .  A
C2585      C2586   1.414       .  A
C2586      C2587   1.502       .  S
C2587      H2591   1.110       .  S
C2587      H2592   1.109       .  S
C2587      H2593   1.109       .  S
C2590      H3470   1.111       .  S
C2590      H2595   1.109       .  S
C2590      H2596   1.111       .  S
H2594      C3466   1.111       .  S
C2597      C2598   1.400       .  A
C2597      C2602   1.405       .  A
C2597      H2604   1.084       .  S
C2598      C2599   1.413       .  A
C2599      C2606   1.512       .  S
C2599      C2600   1.401       .  A
C2600      C2601   1.412       .  A
C2600      H2605   1.073       .  S
C2601      C2602   1.431       .  A
C2602      C2603   1.515       .  S
C2603      H2607   1.111       .  S
C2603      H2608   1.106       .  S
C2603      H2609   1.106       .  S
C2606      H2610   1.111       .  S
C2606      H2611   1.109       .  S
C2606      H2612   1.111       .  S
C2613      C2614   1.402       .  A
C2613      C2618   1.402       .  A
C2613      H2620   1.084       .  S
C2614      C2615   1.414       .  A
C2615      C2622   1.506       .  S
C2615      C2616   1.406       .  A
C2616      C2617   1.406       .  A
C2616      H2621   1.084       .  S
C2617      C2618   1.418       .  A
C2618      C2619   1.508       .  S
C2619      H2623   1.111       .  S
C2619      H2624   1.110       .  S
C2619      H2625   1.110       .  S
C2622      H2626   1.107       .  S
C2622      H2627   1.108       .  S
C2622      H2628   1.111       .  S
C2629      C2630   1.546       .  S
C2629      C2635   1.532       .  S
C2629      C2633   1.539       .  S
C2629      C3477   1.542       .  S
C2630      H2637   1.080       .  S
C2631      C2632   1.545   1_545  S
C2631      C3445   1.488       .  S
C2632      C2636   1.546   1_565  S
C2632      C2634   1.537       .  S
C2632      H2638   1.109       .  S
C2634      C3490   1.487       .  S
C2635      H2640   1.084       .  S
C2636      C3461   1.490       .  S
N2641      C2646   1.353       .  A
N2641      C2645   1.353   1_554  A
N2641      H2673   1.036       .  S
N2642      C2650   1.352       .  A
N2643      C2648   1.353   1_556  A
N2643      C2647   1.352       .  A
N2643      H2674   1.038   1_556  S
N2644      C2652   1.351       .  A
C2645      C2653   1.387       .  A
C2645      C2661   1.417       .  A
C2646      C2662   1.416       .  A
C2646      C2654   1.387       .  A
C2647      C2655   1.387       .  A
C2647      C2664   1.414       .  A
C2648      C2663   1.413       .  A
C2648      C2656   1.387       .  A
C2649      C2661   1.415       .  A
C2649      C2657   1.387       .  A
C2650      C2664   1.413       .  A
C2650      C2658   1.386       .  A
C2651      C2659   1.386       .  A
C2651      C2662   1.414       .  A
C2652      C2660   1.387       .  A
C2652      C2663   1.413       .  A
C2653      C2654   1.376   1_556  A
C2653      H2665   1.082       .  S
C2654      H2666   1.082       .  S
C2655      C2656   1.375   1_556  A
C2655      H2667   1.082       .  S
C2656      H2668   1.082       .  S
C2657      H2669   1.082       .  S
C2658      H2670   1.082       .  S
C2659      H2671   1.082       .  S
C2660      H2672   1.082       .  S
C2661      C3429   1.488       .  S
C2662      C3394   1.487       .  S
C2663      C3381   1.484       .  S
C2664      C3410   1.485       .  S
C2675      C2676   1.534       .  S
C2675      C2681   1.538       .  S
C2675      C2679   1.549       .  S
C2675      C3346   1.546       .  S
C2676      H2683   1.086       .  S
C2677      C2678   1.546   1_545  S
C2677      C3330   1.495       .  S
C2678      C2682   1.546   1_565  S
C2678      C2680   1.532       .  S
C2678      H2684   1.111       .  S
C2680      C3362   1.476       .  S
C2681      H2686   1.086       .  S
C2682      C3314   1.490       .  S
C2687      C2688   1.548   1_455  S
C2687      C2691   1.544   1_455  S
C2687      C3250   1.554       .  S
C2688      H2695   1.081       .  S
C2688      C2689   1.367       .  D
C2689      C3301   1.486       .  S
C2690      C2694   1.543       .  S
C2690      H2696   1.111       .  S
C2691      C2692   1.366   1_655  D
C2692      C3269   1.483   1_455  S
C2693      H2698   1.086       .  S
C2693      C2694   1.370       .  D
C2694      C3282   1.498       .  S
N2699      C2704   1.354       .  A
N2699      C2703   1.354   1_554  A
N2699      H2731   1.038       .  S
N2700      C2708   1.353       .  A
N2701      C2706   1.353       .  A
N2701      C2705   1.353   1_554  A
N2701      H2732   1.038       .  S
N2702      C2710   1.353       .  A
C2703      C2711   1.387       .  A
C2703      C2719   1.417       .  A
C2704      C2720   1.417       .  A
C2704      C2712   1.387       .  A
C2705      C2713   1.387       .  A
C2705      C2722   1.414       .  A
C2706      C2721   1.415       .  A
C2706      C2714   1.387       .  A
C2707      C2719   1.416       .  A
C2707      C2715   1.387       .  A
C2708      C2722   1.413       .  A
C2708      C2716   1.385       .  A
C2709      C2717   1.387       .  A
C2709      C2720   1.417       .  A
C2710      C2718   1.385       .  A
C2710      C2721   1.415       .  A
C2711      C2712   1.378   1_556  A
C2711      H2723   1.082       .  S
C2712      H2724   1.082       .  S
C2713      C2714   1.375   1_556  A
C2713      H2725   1.082       .  S
C2714      H2726   1.082       .  S
C2715      H2727   1.082       .  S
C2716      H2728   1.082       .  S
C2717      H2729   1.082       .  S
C2718      H2730   1.082       .  S
C2719      C3237   1.492       .  S
C2720      C3202   1.490       .  S
C2721      C3186   1.489       .  S
C2722      C3221   1.489       .  S
N2733      N2734   1.322       .  A
N2733      N2739   1.314       .  A
N2733     Mn2762   2.205       .  S
N2734      C2741   1.355       .  A
N2735      N2737   1.315       .  A
N2735      N2736   1.319       .  A
N2735     Mn2751   2.197       .  S
N2736      C2742   1.353       .  A
N2737      N2738   1.318       .  A
N2737     Mn2762   2.204       .  S
N2738      C2742   1.355       .  A
N2739      N2740   1.320       .  A
N2739     Mn2751   2.199       .  S
N2740      C2741   1.352       .  A
C2741      C3234   1.488       .  S
C2742      C3365   1.489       .  S
N2743      N2749   1.316       .  A
N2743      N2744   1.319       .  A
N2743     Mn2773   2.204       .  S
N2744      C2752   1.354       .  A
N2745      N2746   1.318       .  A
N2745      N2747   1.315       .  A
N2745     Mn2751   2.190       .  S
N2746      C2753   1.351       .  A
N2747      N2748   1.323       .  A
N2747     Mn2773   2.222       .  S
N2748      C2753   1.359       .  A
N2749      N2750   1.323       .  A
N2749     Mn2751   2.209       .  S
N2750      C2752   1.355       .  A
Mn2751    Cl2775   2.550       .  S
C2752      C3298   1.489       .  S
C2753      C3426   1.492       .  S
N2754      N2755   1.324       .  A
N2754      N2760   1.317       .  A
N2754     Mn2762   2.211       .  S
N2755      C2763   1.354       .  A
N2756      N2758   1.315       .  A
N2756      N2757   1.318       .  A
N2756     Mn2774   2.201       .  S
N2757      C2764   1.353       .  A
N2758      N2759   1.321       .  A
N2758     Mn2762   2.196       .  S
N2759      C2764   1.354       .  A
N2760      N2761   1.320       .  A
N2760     Mn2774   2.208       .  S
N2761      C2763   1.351       .  A
Mn2762    Cl2775   2.552       .  S
C2763      C3285   1.476       .  S
C2764      C3413   1.485       .  S
N2765      N2766   1.318       .  A
N2765      N2771   1.313       .  A
N2765     Mn2773   2.193       .  S
N2766      C2776   1.351       .  A
N2767      N2768   1.320       .  A
N2767      N2769   1.318       .  A
N2767     Mn2774   2.201       .  S
N2768      C2777   1.351       .  A
N2769      N2770   1.325       .  A
N2769     Mn2773   2.231       .  S
N2770      C2777   1.357       .  A
N2771      N2772   1.322       .  A
N2771     Mn2774   2.210       .  S
N2772      C2776   1.358       .  A
Mn2773    Cl2775   2.548       .  S
Mn2774    Cl2775   2.545       .  S
C2776      C3218   1.495       .  S
C2777      C3349   1.480       .  S
N2778      N2779   1.320       .  A
N2778      N2784   1.317       .  A
N2778     Mn2807   2.212       .  S
N2779      C2786   1.354       .  A
N2780      N2782   1.315       .  A
N2780      N2781   1.321       .  A
N2780     Mn2796   2.205       .  S
N2781      C2787   1.354       .  A
N2782      N2783   1.321       .  A
N2782     Mn2807   2.207       .  S
N2783      C2787   1.354       .  A
N2784      N2785   1.320       .  A
N2784     Mn2796   2.205       .  S
N2785      C2786   1.354       .  A
C2786      C3493   1.487       .  S
C2787      C3205   1.492       .  S
N2788      N2794   1.314       .  A
N2788      N2789   1.322       .  A
N2788     Mn2818   2.205       .  S
N2789      C2797   1.357       .  A
N2790      N2791   1.325       .  A
N2790      N2792   1.317       .  A
N2790     Mn2796   2.225       .  S
N2791      C2798   1.357       .  A
N2792      N2793   1.321       .  A
N2792     Mn2818   2.208       .  S
N2793      C2798   1.351       .  A
N2794      N2795   1.318       .  A
N2794     Mn2796   2.192       .  S
N2795      C2797   1.351       .  A
Mn2796    Cl2820   2.550       .  S
C2797      C3397   1.489       .  S
C2798      C3170   1.482       .  S
N2799      N2800   1.320       .  A
N2799      N2805   1.314       .  A
N2799     Mn2807   2.206       .  S
N2800      C2808   1.356       .  A
N2801      N2803   1.316       .  A
N2801      N2802   1.319       .  A
N2801     Mn2819   2.205       .  S
N2802      C2809   1.354       .  A
N2803      N2804   1.324       .  A
N2803     Mn2807   2.218       .  S
N2804      C2809   1.357       .  A
N2805      N2806   1.319       .  A
N2805     Mn2819   2.197       .  S
N2806      C2808   1.353       .  A
Mn2807    Cl2820   2.552       .  S
C2808      C3378   1.490       .  S
C2809      C3154   1.494       .  S
N2810      N2811   1.315       .  A
N2810      N2816   1.316       .  A
N2810     Mn2818   2.190       .  S
N2811      C2821   1.349       .  A
N2812      N2813   1.319       .  A
N2812      N2814   1.314       .  A
N2812     Mn2819   2.194       .  S
N2813      C2822   1.352       .  A
N2814      N2815   1.322       .  A
N2814     Mn2818   2.209       .  S
N2815      C2822   1.357       .  A
N2816      N2817   1.322       .  A
N2816     Mn2819   2.207       .  S
N2817      C2821   1.357       .  A
Mn2818    Cl2820   2.548       .  S
Mn2819    Cl2820   2.549       .  S
C2821      C3474   1.483       .  S
C2822      C3189   1.494       .  S
N2823      N2824   1.322       .  A
N2823     Mn2852   2.214       .  S
N2824      C2831   1.355       .  A
N2825      N2826   1.321       .  A
N2825     Mn2841   2.208       .  S
N2827      N2828   1.322       .  A
N2827     Mn2852   2.209       .  S
N2828      C2832   1.355       .  A
N2829      N2830   1.321       .  A
N2829     Mn2841   2.208       .  S
C2831      C3253   1.485   1_655  S
C2832      C3122   1.494       .  S
N2833      N2834   1.319       .  A
N2833     Mn2863   2.194       .  S
N2834      C2842   1.351       .  A
N2835      N2836   1.320       .  A
N2835     Mn2841   2.205       .  S
N2837      N2838   1.323       .  A
N2837     Mn2863   2.216       .  S
N2838      C2843   1.355       .  A
N2839      N2840   1.320       .  A
N2839     Mn2841   2.208       .  S
C2842      C3090   1.486       .  S
C2843      C3333   1.477       .  S
N2844      N2845   1.318       .  A
N2844     Mn2852   2.199       .  S
N2846      N2847   1.324       .  A
N2846     Mn2864   2.214       .  S
N2847      C2854   1.356       .  A
N2848      N2849   1.319       .  A
N2848     Mn2852   2.207       .  S
N2850      N2851   1.321       .  A
N2850     Mn2864   2.200       .  S
N2851      C2853   1.355       .  A
C2853      C3106   1.486       .  S
C2854      C3317   1.492       .  S
N2855      N2856   1.320       .  A
N2855     Mn2863   2.213       .  S
N2857      N2858   1.322       .  A
N2857     Mn2864   2.209       .  S
N2858      C2867   1.355       .  A
N2859      N2860   1.320       .  A
N2859     Mn2863   2.200       .  S
N2861      N2862   1.321       .  A
N2861     Mn2864   2.206       .  S
N2862      C2866   1.354       .  A
Mn2864    Cl2865   2.554       .  S
C2866      C3266   1.496       .  S
C2867      C3138   1.494       .  S
N2868      N2869   1.325       .  A
N2868     Mn2897   2.220       .  S
N2869      C2876   1.357       .  A
N2870      N2871   1.321       .  A
N2870     Mn2886   2.211       .  S
N2872      N2873   1.317       .  A
N2872     Mn2897   2.181       .  S
N2873      C2877   1.352       .  A
N2874      N2875   1.319       .  A
N2874     Mn2886   2.205       .  S
C2876      C3458   1.490       .  S
C2877      C3058   1.489       .  S
N2878      N2879   1.320       .  A
N2878     Mn2908   2.202       .  S
N2879      C2887   1.354   1_655  A
N2880      N2881   1.321       .  A
N2880     Mn2886   2.212       .  S
N2882      N2883   1.320       .  A
N2882     Mn2908   2.203       .  S
N2883      C2888   1.351   1_655  A
N2884      N2885   1.319       .  A
N2884     Mn2886   2.194       .  S
C2887      C3029   1.490       .  S
C2888      C3010   1.473       .  S
N2889      N2890   1.322       .  A
N2889     Mn2897   2.212       .  S
N2891      N2892   1.321       .  A
N2891     Mn2909   2.222       .  S
N2892      C2899   1.358   1_655  A
N2893      N2894   1.319       .  A
N2893     Mn2897   2.190       .  S
N2895      N2896   1.321       .  A
N2895     Mn2909   2.204       .  S
N2896      C2898   1.354   1_655  A
C2898      C3042   1.495       .  S
C2899      C2994   1.491       .  S
N2900      N2901   1.320       .  A
N2900     Mn2908   2.204       .  S
N2902      N2903   1.323       .  A
N2902     Mn2909   2.217       .  S
N2903      C2912   1.358       .  A
N2904      N2905   1.320       .  A
N2904     Mn2908   2.204       .  S
N2906      N2907   1.322       .  A
N2906     Mn2909   2.207       .  S
N2907      C2911   1.353       .  A
Mn2909    Cl2910   2.554   1_655  S
C2911      C3442   1.473       .  S
C2912      C3074   1.496       .  S
N2913      C2918   1.351       .  A
N2913      C2917   1.354       .  A
N2913      H2945   1.036   1_455  S
N2914      C2921   1.353       .  A
N2914      C2922   1.351       .  A
N2915      C2920   1.355   1_655  A
N2915      C2919   1.353   1_655  A
N2915      H2946   1.037       .  S
N2916      C2923   1.352       .  A
N2916      C2924   1.353       .  A
C2917      C2925   1.386       .  A
C2917      C2933   1.415   1_455  A
C2918      C2934   1.414       .  A
C2918      C2926   1.387       .  A
C2919      C2927   1.387       .  A
C2919      C2936   1.418   1_455  A
C2920      C2935   1.417       .  A
C2920      C2928   1.386       .  A
C2921      C2933   1.414       .  A
C2921      C2929   1.385       .  A
C2922      C2936   1.416       .  A
C2922      C2930   1.388       .  A
C2923      C2931   1.386   1_455  A
C2923      C2934   1.414       .  A
C2924      C2932   1.386   1_455  A
C2924      C2935   1.415       .  A
C2925      C2926   1.376       .  A
C2925      H2937   1.082       .  S
C2926      H2938   1.082       .  S
C2927      C2928   1.379       .  A
C2927      H2939   1.082       .  S
C2928      H2940   1.082       .  S
C2929      C2930   1.372       .  A
C2929      H2941   1.082       .  S
C2930      H2942   1.082       .  S
C2931      C2932   1.372       .  A
C2931      H2943   1.082       .  S
C2932      H2944   1.082       .  S
C2933      C3125   1.493       .  S
C2934      C3026   1.484       .  S
C2935      C3045   1.494       .  S
C2936      C3141   1.488       .  S
N2947      C2952   1.352       .  A
N2947      C2951   1.353       .  A
N2947      H2979   1.035       .  S
N2948      C2955   1.351       .  A
N2948      C2956   1.350       .  A
N2949      C2954   1.353       .  A
N2949      C2953   1.353       .  A
N2949      H2980   1.035       .  S
N2950      C2957   1.352       .  A
N2950      C2958   1.353       .  A
C2951      C2959   1.387       .  A
C2951      C2967   1.416       .  A
C2952      C2968   1.417       .  A
C2952      C2960   1.388       .  A
C2953      C2961   1.387       .  A
C2953      C2970   1.416       .  A
C2954      C2969   1.416       .  A
C2954      C2962   1.387       .  A
C2955      C2967   1.412       .  A
C2955      C2963   1.386       .  A
C2956      C2970   1.413       .  A
C2956      C2964   1.387       .  A
C2957      C2965   1.387       .  A
C2957      C2968   1.417       .  A
C2958      C2966   1.386       .  A
C2958      C2969   1.416       .  A
C2959      C2960   1.374       .  A
C2959      H2971   1.082       .  S
C2960      H2972   1.082       .  S
C2961      C2962   1.376       .  A
C2961      H2973   1.082       .  S
C2962      H2974   1.082       .  S
C2963      C2964   1.370       .  A
C2963      H2975   1.082       .  S
C2964      H2976   1.082       .  S
C2965      C2966   1.370       .  A
C2965      H2977   1.082       .  S
C2966      H2978   1.082       .  S
C2967      C3093   1.486       .  S
C2968      C3061   1.486       .  S
C2969      C3077   1.490       .  S
C2970      C3109   1.483       .  S
C2981      C2987   1.540       .  S
C2981      C2985   1.551       .  S
C2981      C3013   1.545       .  S
C2982      H2989   1.086       .  S
C2982      C2983   1.364       .  D
C2983      C3157   1.486       .  S
C2984      C2988   1.546       .  S
C2984      C2986   1.536       .  S
C2984      H2990   1.111       .  S
C2985      H2991   1.081       .  S
C2985      C2986   1.366       .  D
C2986      C2997   1.484       .  S
C2987      H2992   1.086       .  S
C2987      C2988   1.367       .  D
C2988      C3173   1.495       .  S
C2993      C2994   1.404   1_655  A
C2993      C2998   1.401       .  A
C2993      H3000   1.084       .  S
C2995      C3002   1.508       .  S
C2995      C2996   1.406       .  A
C2996      H3001   1.085       .  S
C2997      C2998   1.412       .  A
C2998      C2999   1.503       .  S
C2999      H3003   1.110       .  S
C2999      H3004   1.110       .  S
C2999      H3005   1.098       .  S
C3002      H3006   1.110       .  S
C3002      H3007   1.110       .  S
C3002      H3008   1.111       .  S
C3009      C3010   1.394   1_655  A
C3009      C3014   1.405       .  A
C3009      H3016   1.085       .  S
C3011      C3018   1.509       .  S
C3011      C3012   1.405       .  A
C3012      H3017   1.074       .  S
C3013      C3014   1.432       .  A
C3014      C3015   1.512       .  S
C3015      H3019   1.111   1_655  S
C3015      H3020   1.101       .  S
C3015      H3021   1.111       .  S
C3018      H3022   1.110       .  S
C3018      H3023   1.111       .  S
C3018      H3024   1.111       .  S
C3025      C3026   1.399   1_655  A
C3025      C3030   1.404       .  A
C3025      H3032   1.084       .  S
C3027      C3034   1.506       .  S
C3027      C3028   1.403       .  A
C3028      H3033   1.083       .  S
C3029      C3030   1.421   1_455  A
C3030      C3031   1.507       .  S
C3031      H3035   1.111       .  S
C3031      H3036   1.110       .  S
C3031      H3037   1.110       .  S
C3034      H3038   1.110       .  S
C3034      H3039   1.110       .  S
C3034      H3040   1.111       .  S
C3041      C3046   1.405       .  A
C3041      H3048   1.084       .  S
C3042      C3043   1.422   1_455  A
C3043      C3050   1.508       .  S
C3043      C3044   1.408       .  A
C3044      C3045   1.401   1_655  A
C3044      H3049   1.084       .  S
C3046      C3047   1.507       .  S
C3047      H3051   1.111       .  S
C3047      H3052   1.110       .  S
C3047      H3053   1.108       .  S
C3050      H3054   1.109       .  S
C3050      H3055   1.111       .  S
C3050      H3056   1.111       .  S
C3057      C3058   1.410       .  A
C3057      C3062   1.402       .  A
C3057      H3064   1.083       .  S
C3058      C3059   1.420   1_565  A
C3059      C3066   1.507       .  S
C3059      C3060   1.403   1_545  A
C3060      C3061   1.400       .  A
C3060      H3065   1.084   1_565  S
C3061      C3062   1.408       .  A
C3062      C3063   1.507       .  S
C3063      H3067   1.111       .  S
C3063      H3068   1.110       .  S
C3066      H3070   1.110       .  S
C3066      H3072   1.111       .  S
C3073      C3074   1.408       .  A
C3073      C3078   1.404       .  A
C3073      H3080   1.083       .  S
C3074      C3075   1.423   1_565  A
C3075      C3076   1.406       .  A
C3076      C3077   1.400   1_545  A
C3077      C3078   1.412       .  A
C3078      C3079   1.507       .  S
C3079      H3083   1.110       .  S
C3079      H3085   1.108       .  S
C3082      H3086   1.110       .  S
C3082      H3088   1.111       .  S
C3089      C3090   1.406       .  A
C3089      C3094   1.400       .  A
C3089      H3096   1.084   1_565  S
C3090      C3091   1.421       .  A
C3091      C3098   1.509       .  S
C3091      C3092   1.405       .  A
C3092      C3093   1.400       .  A
C3092      H3097   1.084       .  S
C3093      C3094   1.409       .  A
C3094      C3095   1.507   1_565  S
C3095      H3100   1.110       .  S
C3098      H3102   1.110       .  S
C3098      H3104   1.111       .  S
C3105      C3106   1.407       .  A
C3105      C3110   1.402       .  A
C3105      H3112   1.082       .  S
C3107      C3114   1.508       .  S
C3107      C3108   1.402       .  A
C3108      H3113   1.084       .  S
C3109      C3110   1.410       .  A
C3110      C3111   1.507       .  S
C3111      H3115   1.110       .  S
C3111      H3117   1.108       .  S
C3114      H3118   1.109       .  S
C3114      H3120   1.111       .  S
C3121      C3126   1.404       .  A
C3121      H3128   1.083       .  S
C3122      C3123   1.421       .  A
C3123      C3130   1.507       .  S
C3123      C3124   1.409       .  A
C3124      C3125   1.402       .  A
C3124      H3129   1.084       .  S
C3126      C3127   1.506       .  S
C3127      H3131   1.111       .  S
C3127      H3132   1.110       .  S
C3127      H3133   1.110       .  S
C3130      H3134   1.109       .  S
C3130      H3135   1.110       .  S
C3130      H3136   1.111       .  S
C3137      C3142   1.403       .  A
C3137      H3144   1.083       .  S
C3138      C3139   1.422       .  A
C3139      C3146   1.505       .  S
C3139      C3140   1.407       .  A
C3140      C3141   1.400       .  A
C3140      H3145   1.084       .  S
C3142      C3143   1.507       .  S
C3143      H3147   1.111       .  S
C3143      H3148   1.110       .  S
C3143      H3149   1.110       .  S
C3146      H3150   1.110       .  S
C3146      H3151   1.110       .  S
C3146      H3152   1.111       .  S
C3153      C3154   1.408       .  A
C3153      C3158   1.404       .  A
C3153      H3160   1.083       .  S
C3154      C3155   1.419       .  A
C3155      C3162   1.506       .  S
C3155      C3156   1.409       .  A
C3156      C3157   1.403       .  A
C3156      H3161   1.084       .  S
C3157      C3158   1.412       .  A
C3158      C3159   1.509       .  S
C3159      H3163   1.111       .  S
C3159      H3164   1.111       .  S
C3159      H3165   1.107       .  S
C3162      H3166   1.110       .  S
C3162      H3167   1.110       .  S
C3162      H3168   1.111       .  S
C3169      C3170   1.400       .  A
C3169      C3174   1.407       .  A
C3169      H3176   1.085       .  S
C3170      C3171   1.412       .  A
C3171      C3178   1.505       .  S
C3171      C3172   1.408       .  A
C3172      C3173   1.405       .  A
C3172      H3177   1.084       .  S
C3173      C3174   1.423       .  A
C3174      C3175   1.509       .  S
C3175      H3179   1.111       .  S
C3175      H3180   1.106       .  S
C3175      H3181   1.110       .  S
C3178      H3182   1.110       .  S
C3178      H3183   1.110       .  S
C3178      H3184   1.111       .  S
C3185      C3186   1.399       .  A
C3185      C3190   1.405       .  A
C3185      H3192   1.084       .  S
C3186      C3187   1.412       .  A
C3187      C3194   1.507       .  S
C3187      C3188   1.403       .  A
C3188      C3189   1.407       .  A
C3188      H3193   1.084       .  S
C3189      C3190   1.423       .  A
C3190      C3191   1.505       .  S
C3191      H3195   1.111       .  S
C3191      H3196   1.109       .  S
C3191      H3197   1.110       .  S
C3194      H3198   1.108       .  S
C3194      H3199   1.110       .  S
C3194      H3200   1.111       .  S
C3201      C3202   1.400       .  A
C3201      C3206   1.407       .  A
C3201      H3208   1.084       .  S
C3202      C3203   1.410       .  A
C3203      C3210   1.506       .  S
C3203      C3204   1.404       .  A
C3204      C3205   1.408       .  A
C3204      H3209   1.084       .  S
C3205      C3206   1.421       .  A
C3206      C3207   1.506       .  S
C3207      H3211   1.110       .  S
C3207      H3212   1.109       .  S
C3207      H3213   1.111       .  S
C3210      H3214   1.110       .  S
C3210      H3215   1.111       .  S
C3210      H3216   1.111       .  S
C3217      C3218   1.408       .  A
C3217      C3222   1.404       .  A
C3217      H3224   1.083       .  S
C3218      C3219   1.425       .  A
C3219      C3226   1.508       .  S
C3219      C3220   1.406       .  A
C3220      C3221   1.399       .  A
C3220      H3225   1.084       .  S
C3221      C3222   1.408       .  A
C3222      C3223   1.506       .  S
C3223      H3227   1.111       .  S
C3223      H3228   1.110       .  S
C3223      H3229   1.110       .  S
C3226      H3230   1.110       .  S
C3226      H3231   1.110       .  S
C3226      H3232   1.111       .  S
C3233      C3234   1.407       .  A
C3233      C3238   1.405       .  A
C3233      H3240   1.084       .  S
C3234      C3235   1.419       .  A
C3235      C3242   1.508       .  S
C3235      C3236   1.405       .  A
C3236      C3237   1.402       .  A
C3236      H3241   1.084       .  S
C3237      C3238   1.411       .  A
C3238      C3239   1.507       .  S
C3239      H3243   1.111       .  S
C3239      H3244   1.110       .  S
C3239      H3245   1.109       .  S
C3242      H3246   1.110       .  S
C3242      H3247   1.108       .  S
C3242      H3248   1.111       .  S
C3249      C3250   1.417   1_655  A
C3249      C3254   1.408       .  A
C3249      H3256   1.076       .  S
C3251      C3258   1.511       .  S
C3251      C3252   1.407       .  A
C3252      H3257   1.084       .  S
C3253      C3254   1.409   1_455  A
C3254      C3255   1.509       .  S
C3255      H3259   1.111       .  S
C3255      H3260   1.111       .  S
C3255      H3261   1.109       .  S
C3258      H3262   1.103       .  S
C3258      H3263   1.104       .  S
C3258      H3264   1.111       .  S
C3265      C3270   1.401       .  A
C3265      H3272   1.083       .  S
C3266      C3267   1.423       .  A
C3267      C3274   1.508       .  S
C3267      C3268   1.409       .  A
C3268      C3269   1.401       .  A
C3268      H3273   1.083       .  S
C3270      C3271   1.503       .  S
C3271      H3275   1.111       .  S
C3271      H3276   1.108       .  S
C3271      H3277   1.109       .  S
C3274      H3278   1.109       .  S
C3274      H3279   1.111       .  S
C3274      H3280   1.111       .  S
C3281      C3282   1.407       .  A
C3281      C3286   1.409       .  A
C3281      H3288   1.084       .  S
C3282      C3283   1.423       .  A
C3283      C3290   1.504       .  S
C3283      C3284   1.402       .  A
C3284      C3285   1.396       .  A
C3284      H3289   1.085       .  S
C3285      C3286   1.411       .  A
C3286      C3287   1.506       .  S
C3287      H3291   1.111       .  S
C3287      H3292   1.110       .  S
C3287      H3293   1.110       .  S
C3290      H3294   1.100       .  S
C3290      H3295   1.110       .  S
C3290      H3296   1.111       .  S
C3297      C3298   1.407       .  A
C3297      C3302   1.403       .  A
C3297      H3304   1.084       .  S
C3298      C3299   1.417       .  A
C3299      C3306   1.507       .  S
C3299      C3300   1.408       .  A
C3300      C3301   1.403       .  A
C3300      H3305   1.081       .  S
C3301      C3302   1.411       .  A
C3302      C3303   1.508       .  S
C3303      H3307   1.111       .  S
C3303      H3308   1.111       .  S
C3303      H3309   1.108       .  S
C3306      H3310   1.110       .  S
C3306      H3311   1.110       .  S
C3306      H3312   1.111       .  S
C3313      C3314   1.405   1_565  A
C3313      C3318   1.412       .  A
C3313      H3320   1.082       .  S
C3315      C3322   1.507       .  S
C3315      C3316   1.403       .  A
C3316      H3321   1.084       .  S
C3317      C3318   1.418       .  A
C3318      C3319   1.507       .  S
C3319      H3323   1.111       .  S
C3319      H3325   1.109       .  S
C3322      H3326   1.106       .  S
C3322      H3328   1.111       .  S
C3329      C3330   1.406   1_565  A
C3329      C3334   1.410       .  A
C3329      H3336   1.084       .  S
C3331      C3338   1.509       .  S
C3331      C3332   1.403       .  A
C3332      H3337   1.085       .  S
C3333      C3334   1.412       .  A
C3334      C3335   1.506       .  S
C3335      H3339   1.111       .  S
C3335      H3341   1.110       .  S
C3338      H3342   1.110       .  S
C3338      H3344   1.111       .  S
C3345      C3346   1.415       .  A
C3345      C3350   1.404       .  A
C3345      H3352   1.077       .  S
C3346      C3347   1.429       .  A
C3347      C3354   1.509       .  S
C3347      C3348   1.408       .  A
C3348      C3349   1.398       .  A
C3348      H3353   1.085       .  S
C3349      C3350   1.408       .  A
C3350      C3351   1.508       .  S
C3351      H3355   1.111       .  S
C3351      H3356   1.110       .  S
C3351      H3357   1.110       .  S
C3354      H3358   1.111       .  S
C3354      H3359   1.103       .  S
C3354      H3360   1.110       .  S
C3361      C3362   1.399       .  A
C3361      C3366   1.404       .  A
C3361      H3368   1.084       .  S
C3362      C3363   1.407       .  A
C3363      C3370   1.503       .  S
C3363      C3364   1.400       .  A
C3364      C3365   1.407       .  A
C3364      H3369   1.084       .  S
C3365      C3366   1.422       .  A
C3366      C3367   1.508       .  S
C3367      H3371   1.111       .  S
C3367      H3372   1.110       .  S
C3367      H3373   1.110       .  S
C3370      H3374   1.109       .  S
C3370      H3375   1.108       .  S
C3370      H3376   1.111       .  S
C3377      C3378   1.407       .  A
C3377      C3382   1.401       .  A
C3377      H3384   1.083       .  S
C3378      C3379   1.422       .  A
C3379      C3386   1.506       .  S
C3379      C3380   1.404       .  A
C3380      C3381   1.399       .  A
C3380      H3385   1.084       .  S
C3381      C3382   1.410       .  A
C3382      C3383   1.507       .  S
C3383      H3387   1.110       .  S
C3383      H3388   1.111       .  S
C3383      H3389   1.108       .  S
C3386      H3390   1.110       .  S
C3386      H3391   1.105       .  S
C3386      H3392   1.111       .  S
C3393      C3394   1.400       .  A
C3393      C3398   1.405       .  A
C3393      H3400   1.084       .  S
C3394      C3395   1.412       .  A
C3395      C3402   1.508       .  S
C3395      C3396   1.401       .  A
C3396      C3397   1.406       .  A
C3396      H3401   1.084       .  S
C3397      C3398   1.422       .  A
C3398      C3399   1.509       .  S
C3399      H3403   1.111       .  S
C3399      H3404   1.110       .  S
C3399      H3405   1.110       .  S
C3402      H3406   1.111       .  S
C3402      H3407   1.108       .  S
C3402      H3408   1.110       .  S
C3409      C3410   1.399       .  A
C3409      C3414   1.401       .  A
C3409      H3416   1.084       .  S
C3410      C3411   1.412       .  A
C3411      C3418   1.507       .  S
C3411      C3412   1.403       .  A
C3412      C3413   1.408       .  A
C3412      H3417   1.084       .  S
C3413      C3414   1.420       .  A
C3414      C3415   1.508       .  S
C3415      H3419   1.111       .  S
C3415      H3420   1.110       .  S
C3415      H3421   1.110       .  S
C3418      H3422   1.110       .  S
C3418      H3423   1.108       .  S
C3418      H3424   1.110       .  S
C3425      C3426   1.407       .  A
C3425      C3430   1.404       .  A
C3425      H3432   1.084       .  S
C3426      C3427   1.424       .  A
C3427      C3434   1.508       .  S
C3427      C3428   1.405       .  A
C3428      C3429   1.398       .  A
C3428      H3433   1.084       .  S
C3429      C3430   1.410       .  A
C3430      C3431   1.506       .  S
C3431      H3435   1.111       .  S
C3431      H3436   1.110       .  S
C3431      H3437   1.110       .  S
C3434      H3438   1.110       .  S
C3434      H3439   1.109       .  S
C3434      H3440   1.111       .  S
C3441      C3442   1.397   1_545  A
C3441      C3446   1.402       .  A
C3441      H3448   1.085       .  S
C3442      C3443   1.412       .  A
C3443      C3450   1.506       .  S
C3443      C3444   1.406       .  A
C3444      C3445   1.402   1_565  A
C3445      C3446   1.423       .  A
C3446      C3447   1.510       .  S
C3447      H3451   1.111   1_545  S
C3447      H3453   1.106       .  S
C3450      H3455   1.110       .  S
C3457      C3458   1.403       .  A
C3457      C3462   1.409       .  A
C3457      H3464   1.084       .  S
C3459      C3466   1.508       .  S
C3459      C3460   1.407       .  A
C3460      H3465   1.084       .  S
C3461      C3462   1.414   1_545  A
C3462      C3463   1.502       .  S
C3463      H3467   1.110       .  S
C3463      H3468   1.109       .  S
C3463      H3469   1.109       .  S
C3466      H3471   1.109       .  S
C3466      H3472   1.111       .  S
C3473      C3474   1.400       .  A
C3473      C3478   1.405       .  A
C3473      H3480   1.084       .  S
C3474      C3475   1.413       .  A
C3475      C3482   1.512       .  S
C3475      C3476   1.400       .  A
C3476      C3477   1.412       .  A
C3476      H3481   1.072       .  S
C3477      C3478   1.431       .  A
C3478      C3479   1.516       .  S
C3479      H3483   1.111       .  S
C3479      H3484   1.106       .  S
C3479      H3485   1.106       .  S
C3482      H3486   1.111       .  S
C3482      H3487   1.109       .  S
C3482      H3488   1.111       .  S
C3489      C3490   1.402       .  A
C3489      C3494   1.402       .  A
C3489      H3496   1.084       .  S
C3490      C3491   1.413       .  A
C3491      C3498   1.506       .  S
C3491      C3492   1.406       .  A
C3492      C3493   1.406       .  A
C3492      H3497   1.084       .  S
C3493      C3494   1.418       .  A
C3494      C3495   1.508       .  S
C3495      H3499   1.111       .  S
C3495      H3500   1.110       .  S
C3495      H3501   1.110       .  S
C3498      H3502   1.107       .  S
C3498      H3503   1.108       .  S
C3498      H3504   1.111       .  S
