geometry optimzed in LAMMPS
_audit_creation_date              2020-12-01 
_audit_creation_method            'lammps2cif' 
_symmetry_space_group_name_H-M    'P1' 
_symmetry_Int_Tables_number       1 
_symmetry_cell_setting            triclinic 
loop_ 
_symmetry_equiv_pos_as_xyz 
  x,y,z 
_cell_length_a                    107.87046029 
_cell_length_b                    107.61210274877847 
_cell_length_c                    45.59973984989501 
_cell_angle_alpha                 90.91068796198562 
_cell_angle_beta                  91.90120176946982 
_cell_angle_gamma                 153.00346010187548 
loop_ 
_atom_site_label 
_atom_site_type_symbol 
_atom_site_fract_x 
_atom_site_fract_y 
_atom_site_fract_z 
_atom_site_charge 
O1          O  0.22870872  0.21555427  0.20740693    -0.74100
O2          O  0.21863851  0.23175223  0.26703441    -0.74100
O3          O  0.21624344  0.22936192  0.20724250    -0.74200
O4          O  0.23079966  0.21772974  0.26728045    -0.74200
O5          O  0.27535593  0.26208602  0.27053265    -0.74200
O6          O  0.26079290  0.27369456  0.21015703    -0.74100
O7          O  0.26315982  0.27609533  0.27000040    -0.74100
O8          O  0.27324795  0.25990205  0.21077503    -0.74200
Ni9        Ni  0.22204793  0.22205417  0.23710674     1.25400
Ni10       Ni  0.26969018  0.26948777  0.24045592     1.25400
C11         C  0.25282594  0.23502506  0.19964654     0.88100
C12         C  0.23917905  0.25670046  0.27808779     0.88000
C13         C  0.23597118  0.25353080  0.19918024     0.88000
C14         C  0.25550825  0.23786554  0.27859722     0.88200
N15         N  0.37764606  0.22482861  0.48317043    -0.03100
C16         C  0.39176846  0.23882675  0.45916792    -0.00500
C17         C  0.41788617  0.26665367  0.46799104    -0.23400
C18         C  0.42086207  0.26963590  0.99813179    -0.23600
C19         C  0.39635043  0.24359175  0.00695907    -0.00600
H20         H  0.43464323  0.28237290  0.45439138     0.13100
H21         H  0.44014190  0.28809344  0.01177847     0.13200
N22         N  0.31955944  0.21030466  0.99332553    -0.03100
C23         C  0.32914906  0.22344416  0.02070494    -0.00500
C24         C  0.35213425  0.25128622  0.01877120    -0.23400
C25         C  0.35391218  0.25471879  0.48956184    -0.23600
C26         C  0.33245117  0.22899477  0.47444006    -0.00600
H27         H  0.36242182  0.26622064  0.03626486     0.13100
H28         H  0.36616382  0.27284056  0.48091515     0.13200
C29         C  0.32157199  0.19864872  0.98892432     0.03500
C30         C  0.34747842  0.21618775  0.98682081    -0.12700
C31         C  0.35050029  0.20588394  0.48357828     0.01000
C32         C  0.32714683  0.17744564  0.48224908    -0.11200
C33         C  0.30107250  0.15940286  0.48430370     0.03500
C34         C  0.29845341  0.17015917  0.48773613    -0.10600
H35         H  0.36567203  0.23822505  0.98822084     0.09100
H36         H  0.32939693  0.16950866  0.47995522     0.06600
H37         H  0.27839929  0.15628771  0.48933067     0.06400
N38         N  0.27692169  0.13002667  0.48207171    -0.03100
C39         C  0.25925429  0.11398289  0.45701445    -0.00500
C40         C  0.23247115  0.09020327  0.46406382    -0.23400
C41         C  0.23369065  0.09081416  0.49418716    -0.23600
C42         C  0.26121334  0.11496913  0.50482403    -0.00600
H43         H  0.21411177  0.07231371  0.44903385     0.13100
H44         H  0.21637266  0.07342917  0.50635399     0.13200
O45         O  0.26240275  0.00070805  0.26040220    -0.74100
O46         O  0.27341650  0.03525347  0.20244851    -0.74100
O47         O  0.27033952  0.03303756  0.26128854    -0.74200
O48         O  0.26552017  0.00312848  0.20154380    -0.74200
O49         O  0.22035592  0.46569940  0.19354332    -0.74200
O50         O  0.22514059  0.49551088  0.25373295    -0.74100
O51         O  0.22827196  0.49794981  0.19497094    -0.74100
O52         O  0.21721849  0.46309089  0.25238523    -0.74200
Ni53       Ni  0.26948871  0.01933134  0.23174460     1.25400
Ni54       Ni  0.22113795  0.47922139  0.22343330     1.25400
C55         C  0.23796627  0.47586940  0.26533309     0.88100
C56         C  0.25271274  0.02252296  0.18951055     0.88000
C57         C  0.24869885  0.01966299  0.26671328     0.88000
C58         C  0.24212189  0.47932938  0.18791984     0.88200
O59         O  0.46714175  0.22124145  0.26574691    -0.74100
O60         O  0.50336450  0.23453935  0.20845542    -0.74100
O61         O  0.50069447  0.23084225  0.26735624    -0.74200
O62         O  0.46950824  0.22465081  0.20688122    -0.74200
O63         O  0.00608955  0.26970273  0.21454172    -0.74200
O64         O  0.03738562  0.27591993  0.27519717    -0.74100
O65         O  0.03989531  0.27955012  0.21623263    -0.74100
O66         O  0.00377541  0.26629396  0.27336735    -0.74200
Ni67       Ni  0.48391115  0.22624652  0.23681647     1.25400
Ni68       Ni  0.02308273  0.27445038  0.24510797     1.25400
C69         C  0.47927107  0.24159196  0.27855305     0.88100
C70         C  0.02785413  0.25930755  0.20325004     0.88000
C71         C  0.02437411  0.25442966  0.28095264     0.88000
C72         C  0.48223903  0.24597283  0.20125977     0.88200
N73         N  0.21099067  0.31999815  0.99200624    -0.03100
C74         C  0.22908139  0.33242554  0.47256875    -0.00500
C75         C  0.25474485  0.35325664  0.48724487    -0.23400
C76         C  0.25194120  0.35173769  0.01663257    -0.23600
C77         C  0.22453009  0.32970693  0.01912419    -0.00600
H78         H  0.27225741  0.36483903  0.47803182     0.13100
H79         H  0.26685223  0.36167790  0.03387632     0.13200
C80         C  0.19867317  0.32135191  0.98846337     0.03500
C81         C  0.21415756  0.34517683  0.47874009    -0.12700
C82         C  0.20430416  0.34870878  0.47811400     0.01000
C83         C  0.17822744  0.32780294  0.98698924    -0.11200
C84         C  0.16214308  0.30380625  0.99670098     0.03500
C85         C  0.17265408  0.30086091  0.99770946    -0.10600
H86         H  0.23475994  0.36190123  0.47301305     0.09100
H87         H  0.17045483  0.33024054  0.48628204     0.06600
H88         H  0.16033288  0.28239708  0.00508664     0.06400
N89         N  0.13373417  0.28078768  0.00106530    -0.03100
C90         C  0.12249335  0.26807166  0.02635492    -0.00500
C91         C  0.09774672  0.23977359  0.01896230    -0.23400
C92         C  0.09243001  0.23520388  0.48881895    -0.23600
C93         C  0.11431221  0.26072818  0.47852531    -0.00600
H94         H  0.08248588  0.22402233  0.03369404     0.13100
H95         H  0.07286343  0.21559209  0.47646432     0.13200
N96         N  0.22248122  0.37505100  0.47233736    -0.03100
C97         C  0.23451521  0.38613723  0.44666385    -0.00500
C98         C  0.26279787  0.41213447  0.45306994    -0.23400
C99         C  0.26801561  0.41863881  0.48289113    -0.23600
C100        C  0.24285439  0.39605969  0.49395147    -0.00600
H101        H  0.27752892  0.42704724  0.43747936     0.13100
H102        H  0.28744288  0.43898609  0.49429900     0.13200
C103        C  0.11088281  0.26499661  0.45116510    -0.03000
C104        C  0.09776491  0.24820565  0.42479776    -0.08800
C105        C  0.09009062  0.24902994  0.40076285    -0.16500
C106        C  0.09535306  0.26654478  0.40295744     0.25700
C107        C  0.10914198  0.28386834  0.42884718    -0.18100
C108        C  0.11669017  0.28298770  0.45280240    -0.07000
C109        C  0.08467416  0.26525042  0.37989759    -0.13500
C110        C  0.07477837  0.26382799  0.36223800    -0.13200
C111        C  0.06207516  0.26154527  0.34219548     0.25600
C112        C  0.07612773  0.28498273  0.33643988    -0.18600
C113        C  0.06373414  0.28268284  0.31694531    -0.07100
C114        C  0.03705516  0.25685418  0.30292944    -0.03100
C115        C  0.02299377  0.23339150  0.30918615    -0.08500
C116        C  0.03541424  0.23574524  0.32867071    -0.16100
H117        H  0.09257690  0.23378385  0.42322328     0.12000
H118        H  0.07921085  0.23533951  0.38091342     0.11300
H119        H  0.11296672  0.29719290  0.43102034     0.11300
H120        H  0.12537990  0.29504522  0.47325622     0.11800
H121        H  0.09672035  0.30505833  0.34689812     0.11900
H122        H  0.07516072  0.30115561  0.31260376     0.11800
H123        H  0.50246257  0.21319514  0.29880120     0.12000
H124        H  0.02425285  0.21743052  0.33306787     0.10800
C125        C  0.12417554  0.27835774  0.05243085    -0.03000
C126        C  0.13083474  0.29692957  0.04917692    -0.08800
C127        C  0.12369533  0.29961593  0.06965376    -0.16500
C128        C  0.10998235  0.28399150  0.09390976     0.25700
C129        C  0.10545873  0.26730538  0.09859922    -0.18100
C130        C  0.11263288  0.26466084  0.07825146    -0.07000
C131        C  0.09855801  0.28318559  0.11260828    -0.13500
C132        C  0.08713123  0.28035069  0.12780547    -0.13200
C133        C  0.07201493  0.27515002  0.14596314     0.25600
C134        C  0.08386687  0.29680347  0.15803082    -0.18600
C135        C  0.06941241  0.29165509  0.17616409    -0.07100
C136        C  0.04270912  0.26468561  0.18261217    -0.03100
C137        C  0.03083626  0.24304152  0.17003852    -0.08500
C138        C  0.04532785  0.24823553  0.15197366    -0.16100
H139        H  0.13956250  0.30775016  0.02963461     0.12000
H140        H  0.12760205  0.31281043  0.06568786     0.11300
H141        H  0.09510985  0.25521769  0.11727174     0.11300
H142        H  0.10732295  0.25031697  0.08165337     0.11800
H143        H  0.10441802  0.31774875  0.15366543     0.11900
H144        H  0.07929917  0.30887736  0.18539038     0.11800
H145        H  0.01042897  0.22205221  0.17448541     0.12000
H146        H  0.03574289  0.23118744  0.14288517     0.10800
C147        C  0.24018072  0.46717171  0.16610393    -0.03000
C148        C  0.26401808  0.48222915  0.15918692    -0.08800
C149        C  0.26215331  0.47026732  0.13997556    -0.16500
C150        C  0.23648077  0.44309173  0.12741919     0.25700
C151        C  0.21265894  0.42805805  0.13378288    -0.18100
C152        C  0.21446957  0.43999831  0.15297760    -0.07000
C153        C  0.23471711  0.43080500  0.10790714    -0.13500
C154        C  0.23403924  0.42145234  0.09093784    -0.13200
C155        C  0.23421676  0.41179299  0.06907974     0.25600
C156        C  0.21296919  0.39198487  0.04611983    -0.18600
C157        C  0.21492626  0.38541918  0.02257340    -0.07100
C158        C  0.23807790  0.39840795  0.02175790    -0.03100
C159        C  0.25866297  0.41721956  0.04570571    -0.08500
C160        C  0.25677090  0.42392773  0.06917167    -0.16100
H161        H  0.28410674  0.00315162  0.16891600     0.12000
H162        H  0.28074707  0.48216643  0.13508787     0.11300
H163        H  0.19267492  0.40704620  0.12408443     0.11300
H164        H  0.19572356  0.42781690  0.15786528     0.11800
H165        H  0.19553342  0.38263082  0.04564939     0.11900
H166        H  0.19930160  0.37177420  0.50405995     0.11800
H167        H  0.27679272  0.42765733  0.04563168     0.12000
H168        H  0.27340521  0.43936996  0.08677271     0.10800
C169        C  0.22283103  0.38304166  0.42078711    -0.03000
C170        C  0.23209544  0.38913244  0.39293274    -0.08800
C171        C  0.22952632  0.39601351  0.37123295    -0.16500
C172        C  0.21767437  0.39697169  0.37694027     0.25700
C173        C  0.20656582  0.38892907  0.40382259    -0.18100
C174        C  0.20896838  0.38187384  0.42548220    -0.07000
C175        C  0.21906919  0.40842650  0.35648088    -0.13500
C176        C  0.22167680  0.41948667  0.34034054    -0.13200
C177        C  0.22569511  0.43367337  0.32168649     0.25600
C178        C  0.25209363  0.46208565  0.31997570    -0.18600
C179        C  0.25604988  0.47583941  0.30205189    -0.07100
C180        C  0.23363874  0.46149528  0.28551510    -0.03100
C181        C  0.20717390  0.43297555  0.28745254    -0.08500
C182        C  0.20327644  0.41923785  0.30529790    -0.16100
H183        H  0.24322469  0.39063398  0.38881263     0.12000
H184        H  0.23818580  0.40208039  0.35061476     0.11300
H185        H  0.19733962  0.38952978  0.40870201     0.11300
H186        H  0.20211907  0.37787313  0.44683120     0.11800
H187        H  0.26970522  0.47365529  0.33245288     0.11900
H188        H  0.27671684  0.49773043  0.30107516     0.11800
H189        H  0.18945396  0.42115958  0.27487266     0.12000
H190        H  0.18272227  0.39729213  0.30624610     0.10800
C191        C  0.26580032  0.11379685  0.42901116    -0.03000
C192        C  0.28423600  0.12021381  0.43001171    -0.08800
C193        C  0.28464390  0.11241162  0.40586700    -0.16500
C194        C  0.26660028  0.09800512  0.38035382     0.25700
C195        C  0.24950536  0.09319975  0.37837201    -0.18100
C196        C  0.24915310  0.10110407  0.40250977    -0.07000
C197        C  0.26364571  0.08568565  0.35785914    -0.13500
C198        C  0.26067658  0.07421127  0.34102815    -0.13200
C199        C  0.25740924  0.06021606  0.32257974     0.25600
C200        C  0.23173171  0.03410935  0.30785529    -0.18600
C201        C  0.22865794  0.02053164  0.29030012    -0.07100
C202        C  0.25126699  0.03289421  0.28718821    -0.03100
C203        C  0.27689940  0.05900766  0.30231319    -0.08500
C204        C  0.27990099  0.07249324  0.31987064    -0.16100
H205        H  0.29654805  0.12895982  0.45028847     0.12000
H206        H  0.29785474  0.11612411  0.40780904     0.11300
H207        H  0.23539664  0.08204204  0.35880165     0.11300
H208        H  0.23454567  0.09563624  0.40118948     0.11800
H209        H  0.21410384  0.02428607  0.30984002     0.11900
H210        H  0.20871376  0.50058285  0.27879126     0.11800
H211        H  0.29476167  0.06919760  0.30034871     0.12000
H212        H  0.29984415  0.09259383  0.33125409     0.10800
C213        C  0.26996990  0.11592666  0.03241158    -0.03000
C214        C  0.28998576  0.12440074  0.03237369    -0.08800
C215        C  0.29237694  0.11752249  0.05444307    -0.16500
C216        C  0.27491613  0.10220327  0.07696471     0.25700
C217        C  0.25645431  0.09559882  0.07837810    -0.18100
C218        C  0.25408363  0.10248422  0.55639660    -0.07000
C219        C  0.27404035  0.09108422  0.09696563    -0.13500
C220        C  0.27130005  0.07987161  0.11285006    -0.13200
C221        C  0.26653626  0.06516947  0.13149354     0.25600
C222        C  0.24066267  0.04030521  0.14139890    -0.18600
C223        C  0.23599634  0.02615637  0.15969874    -0.07100
C224        C  0.25720567  0.03670214  0.16862471    -0.03100
C225        C  0.28306976  0.06156134  0.15834174    -0.08500
C226        C  0.28764246  0.07559062  0.13987476    -0.16100
H227        H  0.30223541  0.13431871  0.01406918     0.12000
H228        H  0.30681986  0.12286606  0.05301280     0.11300
H229        H  0.24287548  0.08387632  0.09566711     0.11300
H230        H  0.23849938  0.09567164  0.55712356     0.11800
H231        H  0.22408683  0.03190745  0.13512854     0.11900
H232        H  0.21592955  0.50724081  0.16732457     0.11800
H233        H  0.29984562  0.07026105  0.16468681     0.12000
H234        H  0.30773315  0.09470088  0.13233747     0.10800
C235        C  0.38837572  0.22739474  0.43265622    -0.03000
C236        C  0.39864029  0.24026626  0.40641244    -0.08800
C237        C  0.40454255  0.23672639  0.38494531    -0.16500
C238        C  0.40029018  0.22022596  0.38921832     0.25700
C239        C  0.38811957  0.20568285  0.41427769    -0.18100
C240        C  0.38207715  0.20911785  0.43575608    -0.07000
C241        C  0.41075150  0.22037043  0.36939056    -0.13500
C242        C  0.42147709  0.22260089  0.35357024    -0.13200
C243        C  0.43599070  0.22717533  0.33510901     0.25600
C244        C  0.42426670  0.20536937  0.32458810    -0.18600
C245        C  0.43838840  0.21000647  0.30661257    -0.07100
C246        C  0.46462189  0.23661170  0.29887856    -0.03100
C247        C  0.47630487  0.25839470  0.30979650    -0.08500
C248        C  0.46213673  0.25370446  0.32763217    -0.16100
H249        H  0.40402270  0.25470950  0.40354113     0.12000
H250        H  0.41386465  0.24810567  0.36576512     0.11300
H251        H  0.38466592  0.19283582  0.41802862     0.11300
H252        H  0.37471035  0.19933073  0.45591079     0.11800
H253        H  0.40412020  0.18471845  0.33013822     0.11900
H254        H  0.42867797  0.19271370  0.29862510     0.11800
H255        H  0.49632451  0.27910689  0.30423852     0.12000
H256        H  0.47159377  0.27084748  0.33550643     0.10800
C257        C  0.46871329  0.24289939  0.18001815    -0.03000
C258        C  0.48229200  0.26597333  0.17316441    -0.08800
C259        C  0.46883543  0.26279167  0.15460060    -0.16500
C260        C  0.44158963  0.23653210  0.14265686     0.25700
C261        C  0.42800867  0.21348846  0.14912533    -0.18100
C262        C  0.44143069  0.21661719  0.16762829    -0.07000
C263        C  0.42777822  0.23332558  0.12344371    -0.13500
C264        C  0.41727662  0.23153001  0.10649551    -0.13200
C265        C  0.40710679  0.23133404  0.08452273     0.25600
C266        C  0.38770160  0.21039567  0.06114775    -0.18600
C267        C  0.38179377  0.21291629  0.03697111    -0.07100
C268        C  0.39544819  0.23657197  0.03576926    -0.03100
C269        C  0.41301946  0.25626831  0.06053392    -0.08500
C270        C  0.41889001  0.25371664  0.08465488    -0.16100
H271        H  0.00321499  0.28647133  0.18238444     0.12000
H272        H  0.47965838  0.28082928  0.14968191     0.11300
H273        H  0.40698021  0.19306223  0.13997136     0.11300
H274        H  0.43028122  0.19838765  0.17254573     0.11800
H275        H  0.37837172  0.19292449  0.06075749     0.11900
H276        H  0.36838052  0.19751582  0.01820964     0.11800
H277        H  0.42367730  0.27459983  0.06038307     0.12000
H278        H  0.43382885  0.27000941  0.10262441     0.10800
C279        C  0.25744209  0.22880086  0.17814126    -0.03000
C280        C  0.28421400  0.24962943  0.17174429    -0.08800
C281        C  0.28885866  0.24381405  0.15254682    -0.16500
C282        C  0.26691848  0.21705982  0.13912793     0.25700
C283        C  0.24014348  0.19618882  0.14518735    -0.18100
C284        C  0.23544889  0.20196015  0.16449102    -0.07000
C285        C  0.27210911  0.21129811  0.11933538    -0.13500
C286        C  0.27794024  0.20803426  0.10298337    -0.13200
C287        C  0.28717531  0.20656418  0.08345206     0.25600
C288        C  0.27524445  0.19453131  0.05417084    -0.18600
C289        C  0.28692537  0.19691015  0.03423408    -0.07100
C290        C  0.31091135  0.21155502  0.04314300    -0.03100
C291        C  0.32154160  0.22181304  0.07305300    -0.08500
C292        C  0.30981563  0.21933823  0.09294469    -0.16100
H293        H  0.30172295  0.27049259  0.18182905     0.12000
H294        H  0.30970263  0.26028170  0.14826009     0.11300
H295        H  0.22284339  0.17536997  0.13509546     0.11300
H296        H  0.21457667  0.18534405  0.16883427     0.11800
H297        H  0.25778646  0.18459157  0.04627932     0.11900
H298        H  0.27861413  0.18940325  0.01128328     0.11800
H299        H  0.34029544  0.23369478  0.08048397     0.12000
H300        H  0.31940731  0.22878290  0.11538698     0.10800
C301        C  0.31914750  0.22197009  0.44587096    -0.03000
C302        C  0.33555996  0.24199643  0.42580302    -0.08800
C303        C  0.32402887  0.23934714  0.40322692    -0.16500
C304        C  0.29578270  0.21651394  0.39992425     0.25700
C305        C  0.27893735  0.19547714  0.41850238    -0.18100
C306        C  0.29051505  0.19811972  0.44123774    -0.07000
C307        C  0.28485863  0.21596394  0.37875227    -0.13500
C308        C  0.27811929  0.21817413  0.36150579    -0.13200
C309        C  0.27219266  0.22304098  0.34108237     0.25600
C310        C  0.24509047  0.20176826  0.33041474    -0.18600
C311        C  0.23963602  0.20663141  0.31045066    -0.07100
C312        C  0.26120101  0.23292252  0.30076800    -0.03100
C313        C  0.28833166  0.25420967  0.31182435    -0.08500
C314        C  0.29373321  0.24929334  0.33172766    -0.16100
H315        H  0.35764042  0.26055291  0.42858833     0.12000
H316        H  0.33738611  0.25574174  0.38905702     0.11300
H317        H  0.25701862  0.17758879  0.41624277     0.11300
H318        H  0.27730105  0.18242178  0.45635853     0.11800
H319        H  0.22814259  0.18135311  0.33739546     0.11900
H320        H  0.21850243  0.18971945  0.30245031     0.11800
H321        H  0.30546820  0.27466101  0.30487183     0.12000
H322        H  0.31481243  0.26601802  0.33972606     0.10800
C323        C  0.22154390  0.31905987  0.44375985    -0.03000
C324        C  0.24012540  0.33576572  0.42214123    -0.08800
C325        C  0.23878274  0.32551767  0.39950986    -0.16500
C326        C  0.21879884  0.29828202  0.39784338     0.25700
C327        C  0.19896533  0.28091219  0.41805729    -0.18100
C328        C  0.20024819  0.29117134  0.44075268    -0.07000
C329        C  0.22007575  0.28906706  0.37683740    -0.13500
C330        C  0.22277955  0.28278006  0.35989679    -0.13100
C331        C  0.22697682  0.27612141  0.33980055     0.25600
C332        C  0.20504876  0.24875704  0.32904747    -0.18600
C333        C  0.20903597  0.24241612  0.30938627    -0.07100
C334        C  0.23510842  0.26331249  0.29999661    -0.03100
C335        C  0.25709376  0.29073221  0.31114726    -0.08500
C336        C  0.25305627  0.29702894  0.33077613    -0.16100
H337        H  0.25692278  0.35738035  0.42397004     0.12000
H338        H  0.25423558  0.33929983  0.38414947     0.11300
H339        H  0.18328139  0.25977170  0.41717600     0.11300
H340        H  0.18591972  0.27786957  0.45723919     0.11800
H341        H  0.18474525  0.23224862  0.33572616     0.11900
H342        H  0.19159342  0.22110026  0.30136302     0.11800
H343        H  0.27744519  0.30742790  0.30448752     0.12000
H344        H  0.27032845  0.31830717  0.33879368     0.10800
C345        C  0.22982851  0.25828031  0.17761772    -0.03000
C346        C  0.20248622  0.23724308  0.16837957    -0.08800
C347        C  0.19664074  0.24207989  0.14945565    -0.16500
C348        C  0.21795798  0.26800210  0.13925001     0.25700
C349        C  0.24522564  0.28894761  0.14801663    -0.18100
C350        C  0.25112047  0.28418327  0.16702033    -0.07000
C351        C  0.21200329  0.27326997  0.12006143    -0.13500
C352        C  0.20832190  0.27888501  0.10400003    -0.13200
C353        C  0.20658504  0.28795059  0.08442070     0.25600
C354        C  0.19269267  0.27461622  0.05591899    -0.18600
C355        C  0.19535048  0.28639160  0.03528743    -0.07100
C356        C  0.21219251  0.31185546  0.04276074    -0.03100
C357        C  0.22403224  0.32378826  0.07214337    -0.08500
C358        C  0.22128026  0.31197351  0.09273512    -0.16100
H359        H  0.18553422  0.21709078  0.17613827     0.12000
H360        H  0.17544345  0.22560807  0.14296883     0.11300
H361        H  0.26201030  0.30911147  0.14034993     0.11300
H362        H  0.27238430  0.30088562  0.17361470     0.11800
H363        H  0.18121128  0.25602641  0.04903587     0.11900
H364        H  0.18643970  0.27696143  0.01276410     0.11800
H365        H  0.23748499  0.34360259  0.07843177     0.12000
H366        H  0.23212567  0.32258783  0.11461429     0.10800
O367        O  0.22871685  0.21557178  0.70737101    -0.74100
O368        O  0.21863433  0.23175643  0.76699815    -0.74100
O369        O  0.21624924  0.22937657  0.70720668    -0.74200
O370        O  0.23079876  0.21773707  0.76724356    -0.74200
O371        O  0.27535508  0.26209375  0.77050262    -0.74200
O372        O  0.26079827  0.27371062  0.71013205    -0.74100
O373        O  0.26315604  0.27610010  0.76997521    -0.74100
O374        O  0.27325568  0.25992059  0.71074552    -0.74200
Ni375      Ni  0.22205018  0.22206513  0.73707029     1.25400
Ni376      Ni  0.26969234  0.26949967  0.74042881     1.25400
C377        C  0.25283541  0.23504495  0.69961345     0.88100
C378        C  0.23917321  0.25670261  0.77805797     0.88000
C379        C  0.23597788  0.25354720  0.69914968     0.88000
C380        C  0.25550652  0.23787182  0.77856298     0.88200
N381        N  0.37763584  0.22482818  0.98315594    -0.03100
C382        C  0.39175871  0.23882873  0.95915435    -0.00500
C383        C  0.41787210  0.26665664  0.96797978    -0.23400
C384        C  0.42087725  0.26963526  0.49814284    -0.23600
C385        C  0.39636237  0.24359334  0.50697252    -0.00600
H386        H  0.43463004  0.28237928  0.95438198     0.13100
H387        H  0.44015802  0.28809219  0.51178862     0.13200
N388        N  0.31957816  0.21031374  0.49334654    -0.03100
C389        C  0.32916484  0.22344730  0.52072958    -0.00500
C390        C  0.35215825  0.25129248  0.51880528    -0.23400
C391        C  0.35388249  0.25470428  0.98952557    -0.23600
C392        C  0.33242542  0.22897878  0.97441160    -0.00600
H393        H  0.36244716  0.26622515  0.53630384     0.13100
H394        H  0.36612698  0.27282018  0.98087036     0.13200
C395        C  0.32158703  0.19865487  0.48893881     0.03500
C396        C  0.34749258  0.21619196  0.48684001    -0.12700
C397        C  0.35048933  0.20588228  0.98356506     0.01000
C398        C  0.32713843  0.17744511  0.98224720    -0.11200
C399        C  0.30106365  0.15940073  0.98430537     0.03500
C400        C  0.29844124  0.17015419  0.98773200    -0.10600
H401        H  0.36568826  0.23823005  0.48824761     0.09100
H402        H  0.32939075  0.16951001  0.97995886     0.06600
H403        H  0.27838666  0.15628137  0.98932918     0.06400
N404        N  0.27691526  0.13002528  0.98207898    -0.03100
C405        C  0.25924944  0.11397810  0.95702085    -0.00500
C406        C  0.23246571  0.09019681  0.96406811    -0.23400
C407        C  0.23368376  0.09081089  0.99419191    -0.23600
C408        C  0.26120620  0.11496908  0.00483112    -0.00600
H409        H  0.21410789  0.07230478  0.94903802     0.13100
H410        H  0.21636602  0.07342587  0.00635896     0.13200
O411        O  0.26242380  0.00072222  0.76040406    -0.74100
O412        O  0.27343942  0.03526999  0.70245336    -0.74100
O413        O  0.27036025  0.03305124  0.76129419    -0.74200
O414        O  0.26554109  0.00314315  0.70154558    -0.74200
O415        O  0.22035767  0.46569947  0.69357945    -0.74200
O416        O  0.22513841  0.49550855  0.75376586    -0.74100
O417        O  0.22827628  0.49795193  0.69500597    -0.74100
O418        O  0.21721399  0.46308651  0.75242005    -0.74200
Ni419      Ni  0.26951017  0.01934619  0.73174805     1.25400
Ni420      Ni  0.22113782  0.47922022  0.72346793     1.25400
C421        C  0.23796016  0.47586351  0.76537092     0.88100
C422        C  0.25273636  0.02254090  0.68951671     0.88000
C423        C  0.24871882  0.01967494  0.76672154     0.88000
C424        C  0.24212387  0.47932943  0.68795772     0.88200
O425        O  0.46716446  0.22126033  0.76576494    -0.74100
O426        O  0.50338235  0.23455796  0.70846297    -0.74100
O427        O  0.50071390  0.23085714  0.76736270    -0.74200
O428        O  0.46952936  0.22467251  0.70689966    -0.74200
O429        O  0.00609829  0.26971605  0.71458088    -0.74200
O430        O  0.03739722  0.27592627  0.77521708    -0.74100
O431        O  0.03990540  0.27956494  0.71625398    -0.74100
O432        O  0.00378661  0.26630048  0.77340517    -0.74200
Ni433      Ni  0.48393141  0.22626513  0.73682915     1.25400
Ni434      Ni  0.02309318  0.27446065  0.74513806     1.25400
C435        C  0.47929567  0.24161113  0.77857563     0.88100
C436        C  0.02786476  0.25932442  0.70326360     0.88000
C437        C  0.02438614  0.25443485  0.78096296     0.88000
C438        C  0.48226061  0.24599516  0.70128127     0.88200
N439        N  0.21100368  0.32002398  0.49198656    -0.03100
C440        C  0.22907184  0.33240188  0.97259322    -0.00500
C441        C  0.25473294  0.35323059  0.98727440    -0.23400
C442        C  0.25195795  0.35176656  0.51660439    -0.23600
C443        C  0.22454759  0.32973589  0.51910166    -0.00600
H444        H  0.27224723  0.36481403  0.97806568     0.13100
H445        H  0.26687185  0.36170896  0.53384486     0.13200
C446        C  0.19868735  0.32137925  0.48845016     0.03500
C447        C  0.21414291  0.34514873  0.97875049    -0.12700
C448        C  0.20428755  0.34867869  0.97811822     0.01000
C449        C  0.17824524  0.32783412  0.48698814    -0.11200
C450        C  0.16216086  0.30383718  0.49669855     0.03500
C451        C  0.17266993  0.30088974  0.49770086    -0.10600
H452        H  0.23474606  0.36187385  0.97302583     0.09100
H453        H  0.17043667  0.33020902  0.98628047     0.06600
H454        H  0.16034831  0.28242528  0.50507623     0.06400
N455        N  0.13375235  0.28081933  0.50106367    -0.03100
C456        C  0.12251074  0.26810356  0.52635339    -0.00500
C457        C  0.09776331  0.23980536  0.51896048    -0.23400
C458        C  0.09241269  0.23517188  0.98882089    -0.23600
C459        C  0.11429372  0.26069607  0.97852706    -0.00600
H460        H  0.08250149  0.22405417  0.53369168     0.13100
H461        H  0.07284638  0.21555959  0.97646651     0.13200
N462        N  0.22246290  0.37501952  0.97233736    -0.03100
C463        C  0.23449308  0.38610180  0.94666139    -0.00500
C464        C  0.26277651  0.41209738  0.95306346    -0.23400
C465        C  0.26799846  0.41860634  0.98288405    -0.23600
C466        C  0.24283889  0.39603090  0.99394820    -0.00600
H467        H  0.27750592  0.42700769  0.93747052     0.13100
H468        H  0.28742755  0.43895498  0.99428820     0.13200
C469        C  0.11086405  0.26496331  0.95116491    -0.03000
C470        C  0.09774231  0.24816862  0.92479964    -0.08800
C471        C  0.09007209  0.24899557  0.90076161    -0.16500
C472        C  0.09534276  0.26651721  0.90295054     0.25700
C473        C  0.10913340  0.28384264  0.92883904    -0.18100
C474        C  0.11667679  0.28295875  0.95279764    -0.07000
C475        C  0.08467171  0.26522935  0.87988557    -0.13500
C476        C  0.07478285  0.26381359  0.86222287    -0.13200
C477        C  0.06208504  0.26153724  0.84218030     0.25600
C478        C  0.07613486  0.28497548  0.83644330    -0.18600
C479        C  0.06374288  0.28268020  0.81695569    -0.07100
C480        C  0.03706799  0.25685536  0.80292863    -0.03100
C481        C  0.02301068  0.23339225  0.80916396    -0.08500
C482        C  0.03542956  0.23574139  0.82864113    -0.16100
H483        H  0.09254920  0.23374275  0.92322864     0.12000
H484        H  0.07919030  0.23530307  0.88091372     0.11300
H485        H  0.11296388  0.29717201  0.93100837     0.11300
H486        H  0.12536766  0.29501795  0.97325005     0.11800
H487        H  0.09672336  0.30504794  0.84691245     0.11900
H488        H  0.07516665  0.30115332  0.81263011     0.11800
H489        H  0.50248631  0.21320601  0.79877750     0.12000
H490        H  0.02427029  0.21742602  0.83302319     0.10800
C491        C  0.12419255  0.27839011  0.55242818    -0.03000
C492        C  0.13085531  0.29696473  0.54917402    -0.08800
C493        C  0.12371632  0.29965231  0.56964940    -0.16500
C494        C  0.11000006  0.28402614  0.59390410     0.25700
C495        C  0.10547287  0.26733718  0.59859384    -0.18100
C496        C  0.11264664  0.26469153  0.57824777    -0.07000
C497        C  0.09857605  0.28322119  0.61260145    -0.13500
C498        C  0.08714820  0.28038462  0.62779969    -0.13200
C499        C  0.07202963  0.27517983  0.64596025     0.25600
C500        C  0.08388405  0.29683208  0.65804522    -0.18600
C501        C  0.06942800  0.29167946  0.67618316    -0.07100
C502        C  0.04272070  0.26470693  0.68261924    -0.03100
C503        C  0.03084522  0.24306421  0.67002776    -0.08500
C504        C  0.04533828  0.24826238  0.65195789    -0.16100
H505        H  0.13958596  0.30778703  0.52963269     0.12000
H506        H  0.12762613  0.31284927  0.56568334     0.11300
H507        H  0.09512156  0.25524818  0.61726542     0.11300
H508        H  0.10733404  0.25034565  0.58165019     0.11800
H509        H  0.10443849  0.31777962  0.65369022     0.11900
H510        H  0.07931706  0.30890095  0.68542326     0.11800
H511        H  0.01043467  0.22207254  0.67446463     0.12000
H512        H  0.03575124  0.23121507  0.64285590     0.10800
C513        C  0.24018331  0.46717341  0.66613893    -0.03000
C514        C  0.26402349  0.48224321  0.65919436    -0.08800
C515        C  0.26216027  0.47028427  0.63997812    -0.16500
C516        C  0.23648653  0.44309915  0.62744553     0.25700
C517        C  0.21266156  0.42805285  0.63383722    -0.18100
C518        C  0.21447066  0.43999042  0.65303578    -0.07000
C519        C  0.23472409  0.43081474  0.60792971    -0.13500
C520        C  0.23404590  0.42146291  0.59095715    -0.13200
C521        C  0.23422372  0.41180551  0.56909493     0.25600
C522        C  0.21297882  0.39200255  0.54613165    -0.18600
C523        C  0.21493822  0.38544159  0.52258059    -0.07100
C524        C  0.23808924  0.39842948  0.52176428    -0.03100
C525        C  0.25867096  0.41723493  0.54571550    -0.08500
C526        C  0.25677676  0.42393871  0.56918585    -0.16100
H527        H  0.28412622  0.00317426  0.66888524     0.12000
H528        H  0.28075632  0.48219313  0.63506834     0.11300
H529        H  0.19267654  0.40703348  0.62415762     0.11300
H530        H  0.19572254  0.42779936  0.65794536     0.11800
H531        H  0.19554394  0.38264982  0.54566201     0.11900
H532        H  0.19928634  0.37174616  0.00405534     0.11800
H533        H  0.27680026  0.42767201  0.54564070     0.12000
H534        H  0.27340905  0.43937701  0.58678953     0.10800
C535        C  0.22280989  0.38301067  0.92078985    -0.03000
C536        C  0.23207143  0.38910131  0.89293307    -0.08800
C537        C  0.22950381  0.39598622  0.87123911    -0.16500
C538        C  0.21765601  0.39694821  0.87695459     0.25700
C539        C  0.20655009  0.38890570  0.90383911    -0.18100
C540        C  0.20895128  0.38184681  0.92549289    -0.07000
C541        C  0.21905237  0.40840656  0.85650135    -0.13500
C542        C  0.22166118  0.41946946  0.84036617    -0.13200
C543        C  0.22568134  0.43365940  0.82171751     0.25600
C544        C  0.25207883  0.46207477  0.82002245    -0.18600
C545        C  0.25603730  0.47583118  0.80210147    -0.07100
C546        C  0.23362934  0.46148664  0.78555212    -0.03100
C547        C  0.20716528  0.43296400  0.78747485    -0.08500
C548        C  0.20326569  0.41922361  0.80531705    -0.16100
H549        H  0.24319744  0.39059973  0.88880663     0.12000
H550        H  0.23816120  0.40205292  0.85061905     0.11300
H551        H  0.19732705  0.38950923  0.90872480     0.11300
H552        H  0.20210401  0.37784614  0.94684377     0.11800
H553        H  0.26968806  0.47364469  0.83250908     0.11900
H554        H  0.27670355  0.49772455  0.80113641     0.11800
H555        H  0.18944798  0.42114781  0.77488485     0.12000
H556        H  0.18271243  0.39727559  0.80625293     0.10800
C557        C  0.26579976  0.11379233  0.92902357    -0.03000
C558        C  0.28423433  0.12020773  0.93003460    -0.08800
C559        C  0.28464538  0.11240545  0.90589577    -0.16500
C560        C  0.26660589  0.09800025  0.88037838     0.25700
C561        C  0.24951226  0.09319638  0.87838634    -0.18100
C562        C  0.24915684  0.10110074  0.90251816    -0.07000
C563        C  0.26365430  0.08568123  0.85788907    -0.13500
C564        C  0.26068685  0.07420782  0.84105958    -0.13200
C565        C  0.25742131  0.06021498  0.82260844     0.25600
C566        C  0.23174483  0.03410971  0.80788076    -0.18600
C567        C  0.22867380  0.02053631  0.79031881    -0.07100
C568        C  0.25128453  0.03290186  0.78720298    -0.03100
C569        C  0.27691549  0.05901317  0.80233227    -0.08500
C570        C  0.27991440  0.07249446  0.81989666    -0.16100
H571        H  0.29654266  0.12895241  0.95031515     0.12000
H572        H  0.29785524  0.11611685  0.90784563     0.11300
H573        H  0.23540677  0.08203974  0.85881254     0.11300
H574        H  0.23455004  0.09563379  0.90119033     0.11800
H575        H  0.21411606  0.02428477  0.80986748     0.11900
H576        H  0.20870012  0.50056188  0.77884709     0.11800
H577        H  0.29477880  0.06920490  0.80036555     0.12000
H578        H  0.29985672  0.09259395  0.83128256     0.10800
C579        C  0.26997768  0.11592628  0.53240331    -0.03000
C580        C  0.28999944  0.12440816  0.53236657    -0.08800
C581        C  0.29239654  0.11753560  0.55443707    -0.16500
C582        C  0.27493521  0.10221354  0.57695836     0.25700
C583        C  0.25646593  0.09559965  0.57836952    -0.18100
C584        C  0.25407750  0.10248861  0.05640585    -0.07000
C585        C  0.27406697  0.09110163  0.59696209    -0.13500
C586        C  0.27133010  0.07989285  0.61285009    -0.13200
C587        C  0.26656565  0.06519144  0.63149783     0.25600
C588        C  0.24069947  0.04034237  0.64142787    -0.18600
C589        C  0.23603094  0.02619213  0.65972859    -0.07100
C590        C  0.25723090  0.03672167  0.66863171    -0.03100
C591        C  0.28308798  0.06156641  0.65832585    -0.08500
C592        C  0.28766250  0.07559658  0.63985702    -0.16100
H593        H  0.30225028  0.13432885  0.51406284     0.12000
H594        H  0.30684512  0.12288640  0.55300824     0.11300
H595        H  0.24288645  0.08387476  0.59565802     0.11300
H596        H  0.23849754  0.09568181  0.05713301     0.11800
H597        H  0.22413098  0.03195719  0.63517521     0.11900
H598        H  0.21594095  0.50725204  0.66736976     0.11800
H599        H  0.29985639  0.07025318  0.66465306     0.12000
H600        H  0.30774725  0.09469476  0.63230054     0.10800
C601        C  0.38837952  0.22740449  0.93264906    -0.03000
C602        C  0.39865216  0.24027981  0.90640681    -0.08800
C603        C  0.40456228  0.23674429  0.88494882    -0.16500
C604        C  0.40030946  0.22024401  0.88922902     0.25700
C605        C  0.38813182  0.20569774  0.91428644    -0.18100
C606        C  0.38208189  0.20912867  0.93575587    -0.07000
C607        C  0.41077494  0.22038987  0.86940954    -0.13500
C608        C  0.42150256  0.22262078  0.85359407    -0.13200
C609        C  0.43601749  0.22719544  0.83513608     0.25600
C610        C  0.42428783  0.20538712  0.82460389    -0.18600
C611        C  0.43840929  0.21002396  0.80662817    -0.07100
C612        C  0.46464802  0.23663121  0.79890474    -0.03100
C613        C  0.47633721  0.25841672  0.80983526    -0.08500
C614        C  0.46216944  0.25372680  0.82767140    -0.16100
H615        H  0.40403360  0.25472193  0.90352968     0.12000
H616        H  0.41388956  0.24812585  0.86576991     0.11300
H617        H  0.38467740  0.19285051  0.91804283     0.11300
H618        H  0.37470852  0.19933814  0.95590933     0.11800
H619        H  0.40413665  0.18473436  0.83014446     0.11900
H620        H  0.42869405  0.19272930  0.79863104     0.11800
H621        H  0.49636124  0.27913069  0.80428623     0.12000
H622        H  0.47163101  0.27087171  0.83555460     0.10800
C623        C  0.46873475  0.24292194  0.68004046    -0.03000
C624        C  0.48231139  0.26599481  0.67318826    -0.08800
C625        C  0.46885318  0.26281141  0.65462455    -0.16500
C626        C  0.44160791  0.23655115  0.64267967     0.25700
C627        C  0.42802979  0.21350906  0.64914579    -0.18100
C628        C  0.44145325  0.21663946  0.66764832    -0.07000
C629        C  0.42779294  0.23334136  0.62346892    -0.13500
C630        C  0.41728602  0.23154058  0.60652285    -0.13200
C631        C  0.40711159  0.23134013  0.58455121     0.25600
C632        C  0.38769673  0.21039379  0.56118449    -0.18600
C633        C  0.38178929  0.21291255  0.53700348    -0.07100
C634        C  0.39545392  0.23657419  0.53578938    -0.03100
C635        C  0.41303170  0.25627700  0.56054843    -0.08500
C636        C  0.41890219  0.25372749  0.58467325    -0.16100
H637        H  0.00321342  0.28648373  0.68244714     0.12000
H638        H  0.47967412  0.28084801  0.64970730     0.11300
H639        H  0.40700194  0.19308238  0.63999067     0.11300
H640        H  0.43030544  0.19841066  0.67256381     0.11800
H641        H  0.37836027  0.19291828  0.56080262     0.11900
H642        H  0.36836959  0.19750615  0.51824715     0.11800
H643        H  0.42369640  0.27461264  0.56038893     0.12000
H644        H  0.43384792  0.27002606  0.60263665     0.10800
C645        C  0.25745422  0.22882392  0.67810794    -0.03000
C646        C  0.28422641  0.24965465  0.67170870    -0.08800
C647        C  0.28887278  0.24384011  0.65251390    -0.16500
C648        C  0.26693390  0.21708466  0.63910077     0.25700
C649        C  0.24015872  0.19621220  0.64516100    -0.18100
C650        C  0.23546246  0.20198270  0.66446143    -0.07000
C651        C  0.27212547  0.21132187  0.61931515    -0.13500
C652        C  0.27795491  0.20805401  0.60296992    -0.13200
C653        C  0.28718694  0.20657754  0.58344743     0.25600
C654        C  0.27526623  0.19455468  0.55416238    -0.18600
C655        C  0.28694670  0.19692895  0.53423459    -0.07100
C656        C  0.31092216  0.21155933  0.54315675    -0.03100
C657        C  0.32154090  0.22180629  0.57307028    -0.08500
C658        C  0.30981526  0.21933600  0.59295308    -0.16100
H659        H  0.30173419  0.27051845  0.68179038     0.12000
H660        H  0.30971683  0.26030884  0.64822582     0.11300
H661        H  0.22285983  0.17539255  0.63507312     0.11300
H662        H  0.21459005  0.18536510  0.66880637     0.11800
H663        H  0.25781757  0.18462708  0.54626127     0.11900
H664        H  0.27864486  0.18943096  0.51128071     0.11800
H665        H  0.34028673  0.23367682  0.58051120     0.12000
H666        H  0.31939867  0.22877258  0.61539874     0.10800
C667        C  0.31911762  0.22194595  0.94583978    -0.03000
C668        C  0.33552991  0.24196013  0.92575517    -0.08800
C669        C  0.32400344  0.23931451  0.90317520    -0.16500
C670        C  0.29576208  0.21649781  0.89988693     0.25700
C671        C  0.27891516  0.19547149  0.91848319    -0.18100
C672        C  0.29048811  0.19810990  0.94122140    -0.07000
C673        C  0.28484622  0.21595638  0.87871285    -0.13500
C674        C  0.27811108  0.21817086  0.86146577    -0.13200
C675        C  0.27218634  0.22304005  0.84104276     0.25600
C676        C  0.24508472  0.20176837  0.83037331    -0.18600
C677        C  0.23963178  0.20663375  0.81041103    -0.07100
C678        C  0.26119756  0.23292611  0.80073177    -0.03100
C679        C  0.28832762  0.25421212  0.81178953    -0.08500
C680        C  0.29372771  0.24929357  0.83169096    -0.16100
H681        H  0.35760832  0.26050661  0.92853172     0.12000
H682        H  0.33736191  0.25570102  0.88899209     0.11300
H683        H  0.25700030  0.17759625  0.91623578     0.11300
H684        H  0.27727495  0.18242281  0.95635644     0.11800
H685        H  0.22813607  0.18135233  0.83735146     0.11900
H686        H  0.21849855  0.18972244  0.80240951     0.11800
H687        H  0.30546491  0.27466444  0.80483963     0.12000
H688        H  0.31480659  0.26601769  0.83969051     0.10800
C689        C  0.22153854  0.31904184  0.94378120    -0.03000
C690        C  0.24012707  0.33575247  0.92216961    -0.08800
C691        C  0.23878309  0.32550521  0.89953405    -0.16500
C692        C  0.21879071  0.29826556  0.89785586     0.25700
C693        C  0.19895150  0.28089205  0.91806341    -0.18100
C694        C  0.20023587  0.29115059  0.94076329    -0.07000
C695        C  0.22006342  0.28904926  0.87684283    -0.13500
C696        C  0.22276562  0.28276337  0.85989478    -0.13100
C697        C  0.22696346  0.27610868  0.83978932     0.25600
C698        C  0.20503090  0.24874818  0.82900780    -0.18600
C699        C  0.20901993  0.24241178  0.80933935    -0.07100
C700        C  0.23509859  0.26330901  0.79997044    -0.03100
C701        C  0.25708760  0.29072461  0.81114782    -0.08500
C702        C  0.25304848  0.29701678  0.83078445    -0.16100
H703        H  0.25692965  0.35736908  0.92400657     0.12000
H704        H  0.25424053  0.33929024  0.88417879     0.11300
H705        H  0.18326109  0.25974848  0.91717309     0.11300
H706        H  0.18590175  0.27784494  0.95724453     0.11800
H707        H  0.18472283  0.23223944  0.83567051     0.11900
H708        H  0.19157422  0.22109900  0.80129451     0.11800
H709        H  0.27744388  0.30742077  0.80450467     0.12000
H710        H  0.27032398  0.31829200  0.83882388     0.10800
C711        C  0.22983760  0.25829895  0.67758677    -0.03000
C712        C  0.20249569  0.23725543  0.66832659    -0.08800
C713        C  0.19665130  0.24209372  0.64940391    -0.16500
C714        C  0.21796948  0.26802399  0.63922193     0.25700
C715        C  0.24523705  0.28897581  0.64800952    -0.18100
C716        C  0.25113069  0.28420977  0.66701151    -0.07000
C717        C  0.21201576  0.27329370  0.62003634    -0.13500
C718        C  0.20833617  0.27891117  0.60397743    -0.13200
C719        C  0.20660213  0.28797979  0.58440003     0.25600
C720        C  0.19270355  0.27464214  0.55590103    -0.18600
C721        C  0.19536313  0.28641899  0.53526987    -0.07100
C722        C  0.21221334  0.31188772  0.54274080    -0.03100
C723        C  0.22406006  0.32382475  0.57212126    -0.08500
C724        C  0.22130614  0.31200841  0.59271274    -0.16100
H725        H  0.18554261  0.21709651  0.67606703     0.12000
H726        H  0.17545408  0.22561683  0.64290007     0.11300
H727        H  0.26202243  0.30914590  0.64036097     0.11300
H728        H  0.27239418  0.30091706  0.67362295     0.11800
H729        H  0.18121532  0.25604783  0.54901933     0.11900
H730        H  0.18644625  0.27698505  0.51274821     0.11800
H731        H  0.23751873  0.34364260  0.57840780     0.12000
H732        H  0.23215640  0.32262528  0.61458990     0.10800
O733        O  0.22871406  0.71556748  0.20740689    -0.74100
O734        O  0.21863291  0.73175353  0.26703349    -0.74100
O735        O  0.21624645  0.72937246  0.20724314    -0.74200
O736        O  0.23079632  0.71773335  0.26727914    -0.74200
O737        O  0.27535293  0.76208968  0.27053748    -0.74200
O738        O  0.26079526  0.77370669  0.21016817    -0.74100
O739        O  0.26315482  0.77609707  0.27001040    -0.74100
O740        O  0.27325280  0.75991637  0.21078058    -0.74200
Ni741      Ni  0.22204789  0.72206140  0.23710608     1.25400
Ni742      Ni  0.26969011  0.76949588  0.24046402     1.25400
C743        C  0.25283260  0.73504058  0.19964938     0.88100
C744        C  0.23917190  0.75669999  0.27809212     0.88000
C745        C  0.23597444  0.75354320  0.19918727     0.88000
C746        C  0.25550397  0.73786773  0.27859827     0.88200
N747        N  0.37761790  0.72480331  0.48317047    -0.03100
C748        C  0.39173892  0.73880153  0.45916755    -0.00500
C749        C  0.41785355  0.76662954  0.46799004    -0.23400
C750        C  0.42086104  0.76963304  0.99815618    -0.23600
C751        C  0.39634802  0.74359231  0.00698983    -0.00600
H752        H  0.43460998  0.78235024  0.45439004     0.13100
H753        H  0.44014314  0.78809147  0.01179935     0.13200
N754        N  0.31955736  0.71030566  0.99334878    -0.03100
C755        C  0.32915463  0.72345292  0.02072484    -0.00500
C756        C  0.35214048  0.75129426  0.01878316    -0.23400
C757        C  0.35388396  0.75469061  0.48954912    -0.23600
C758        C  0.33241760  0.72896266  0.47443503    -0.00600
H759        H  0.36243355  0.76623381  0.03627291     0.13100
H760        H  0.36613509  0.77281060  0.48089652     0.13200
C761        C  0.32156763  0.69864764  0.98895006     0.03500
C762        C  0.34747492  0.71618658  0.98686151    -0.12700
C763        C  0.35047179  0.70585781  0.48357995     0.01000
C764        C  0.32711996  0.67742032  0.48225731    -0.11200
C765        C  0.30104584  0.65937684  0.48431777     0.03500
C766        C  0.29842502  0.67013175  0.48774776    -0.10600
H767        H  0.36567019  0.73822462  0.98827414     0.09100
H768        H  0.32937131  0.66948451  0.47996455     0.06600
H769        H  0.27837097  0.65625975  0.48934643     0.06400
N770        N  0.27689725  0.63000131  0.48209344    -0.03100
C771        C  0.25923070  0.61395140  0.45703595    -0.00500
C772        C  0.23244736  0.59016861  0.46408453    -0.23400
C773        C  0.23366682  0.59078481  0.49420862    -0.23600
C774        C  0.26118981  0.61494600  0.50484677    -0.00600
H775        H  0.21408964  0.57227487  0.44905542     0.13100
H776        H  0.21635019  0.57339999  0.50637678     0.13200
O777        O  0.26242499  0.50072283  0.26037712    -0.74100
O778        O  0.27343776  0.53527269  0.20243585    -0.74100
O779        O  0.27036075  0.53305130  0.26127713    -0.74200
O780        O  0.26554112  0.50314740  0.20151814    -0.74200
O781        O  0.22033501  0.96568011  0.19356630    -0.74200
O782        O  0.22511962  0.99549779  0.25374219    -0.74100
O783        O  0.22825077  0.99793023  0.19498041    -0.74100
O784        O  0.21719647  0.96307658  0.25240842    -0.74200
Ni785      Ni  0.26951022  0.51934811  0.23172574     1.25400
Ni786      Ni  0.22111660  0.97920470  0.22344960     1.25400
C787        C  0.23794371  0.97585508  0.26535882     0.88100
C788        C  0.25273376  0.52254283  0.18950112     0.88000
C789        C  0.24871940  0.51967457  0.26670667     0.88000
C790        C  0.24210140  0.97930990  0.18794607     0.88200
O791        O  0.46713837  0.72123522  0.26576312    -0.74100
O792        O  0.50335713  0.73453576  0.20845884    -0.74100
O793        O  0.50068800  0.73083213  0.26735787    -0.74200
O794        O  0.46950447  0.72465114  0.20689895    -0.74200
O795        O  0.00609336  0.76970531  0.21457904    -0.74200
O796        O  0.03738413  0.77590883  0.27521993    -0.74100
O797        O  0.03989705  0.77955008  0.21625753    -0.74100
O798        O  0.00377630  0.76628624  0.27340351    -0.74200
Ni799      Ni  0.48390585  0.72624166  0.23682605     1.25400
Ni800      Ni  0.02308401  0.77444634  0.24513877     1.25400
C801        C  0.47926932  0.74158541  0.27857576     0.88100
C802        C  0.02785554  0.75930894  0.20326732     0.88000
C803        C  0.02437104  0.75441625  0.28096606     0.88000
C804        C  0.48223635  0.74597470  0.20128413     0.88200
N805        N  0.21100286  0.82001812  0.99201709    -0.03100
C806        C  0.22907732  0.83241702  0.47258554    -0.00500
C807        C  0.25474159  0.85324794  0.48725860    -0.23400
C808        C  0.25195036  0.85175931  0.01665528    -0.23600
C809        C  0.22453680  0.82972379  0.01913852    -0.00600
H810        H  0.27225267  0.86482859  0.47804353     0.13100
H811        H  0.26685910  0.86169934  0.03390362     0.13200
C812        C  0.19868300  0.82136907  0.98846979     0.03500
C813        C  0.21414467  0.84516009  0.47874961    -0.12700
C814        C  0.20428556  0.84868597  0.47811876     0.01000
C815        C  0.17823626  0.82781926  0.98699765    -0.11200
C816        C  0.16215358  0.80382360  0.99671143     0.03500
C817        C  0.17266509  0.80087903  0.99771913    -0.10600
H818        H  0.23474752  0.86188626  0.47302241     0.09100
H819        H  0.17043176  0.83021113  0.48628445     0.06600
H820        H  0.16034560  0.78241668  0.00509892     0.06400
N821        N  0.13374485  0.78080488  0.00107814    -0.03100
C822        C  0.12250561  0.76808847  0.02636773    -0.00500
C823        C  0.09776148  0.73979055  0.01897475    -0.23400
C824        C  0.09241765  0.73517809  0.48884184    -0.23600
C825        C  0.11429528  0.76069967  0.47854228    -0.00600
H826        H  0.08250181  0.72403827  0.03370623     0.13100
H827        H  0.07285033  0.71556346  0.47649118     0.13200
N828        N  0.22245820  0.87502557  0.47233895    -0.03100
C829        C  0.23448822  0.88610938  0.44666286    -0.00500
C830        C  0.26277126  0.91210795  0.45306463    -0.23400
C831        C  0.26799287  0.91861570  0.48288540    -0.23600
C832        C  0.24283374  0.89603700  0.49395007    -0.00600
H833        H  0.27749962  0.92701917  0.43747159     0.13100
H834        H  0.28742098  0.93896413  0.49429053     0.13200
C835        C  0.11085943  0.76496022  0.45117870    -0.03000
C836        C  0.09773868  0.74816439  0.42481523    -0.08800
C837        C  0.09006262  0.74898480  0.40077624    -0.16500
C838        C  0.09532620  0.76650074  0.40296280     0.25700
C839        C  0.10911593  0.78382737  0.42884947    -0.18100
C840        C  0.11666555  0.78295036  0.45280879    -0.07000
C841        C  0.08465004  0.76520679  0.37989699    -0.13500
C842        C  0.07475919  0.76378860  0.36223389    -0.13200
C843        C  0.06206243  0.76151314  0.34219065     0.25600
C844        C  0.07611695  0.78495338  0.33644682    -0.18600
C845        C  0.06372724  0.78265983  0.31695711    -0.07100
C846        C  0.03705004  0.75683478  0.30293456    -0.03100
C847        C  0.02298771  0.73336956  0.30917717    -0.08500
C848        C  0.03540433  0.73571700  0.32865672    -0.16100
H849        H  0.09255102  0.73374278  0.42324639     0.12000
H850        H  0.07918195  0.73529172  0.38092956     0.11300
H851        H  0.11294127  0.79715259  0.43101680     0.11300
H852        H  0.12535626  0.79501065  0.47325955     0.11800
H853        H  0.09670751  0.80502609  0.34691190     0.11900
H854        H  0.07515485  0.80113454  0.31262589     0.11800
H855        H  0.50247180  0.71318389  0.29874896     0.12000
H856        H  0.02424140  0.71740006  0.33304428     0.10800
C857        C  0.12418452  0.77837129  0.05244433    -0.03000
C858        C  0.13084845  0.79694703  0.04919374    -0.08800
C859        C  0.12370807  0.79963253  0.06967001    -0.16500
C860        C  0.10998907  0.78400306  0.09392192     0.25700
C861        C  0.10546040  0.76731264  0.09860852    -0.18100
C862        C  0.11263606  0.76466943  0.07826172    -0.07000
C863        C  0.09856415  0.78319684  0.11261917    -0.13500
C864        C  0.08713646  0.78036104  0.12781564    -0.13200
C865        C  0.07201882  0.77515859  0.14597300     0.25600
C866        C  0.08387760  0.79681327  0.15806132    -0.18600
C867        C  0.06942217  0.79166278  0.17619621    -0.07100
C868        C  0.04271131  0.76469002  0.18262575    -0.03100
C869        C  0.03083158  0.74304498  0.17003081    -0.08500
C870        C  0.04532396  0.74824102  0.15196389    -0.16100
H871        H  0.13958125  0.80777200  0.02965427     0.12000
H872        H  0.12761894  0.81283062  0.06570665     0.11300
H873        H  0.09510696  0.75522115  0.11727804     0.11300
H874        H  0.10732314  0.75032304  0.08166192     0.11800
H875        H  0.10443492  0.81776097  0.15371129     0.11900
H876        H  0.07931443  0.80888590  0.18543930     0.11800
H877        H  0.01041812  0.72205305  0.17446263     0.12000
H878        H  0.03573360  0.73119193  0.14285898     0.10800
C879        C  0.24016194  0.96715232  0.16613398    -0.03000
C880        C  0.26399925  0.98220558  0.15923172    -0.08800
C881        C  0.26213595  0.97024450  0.14002217    -0.16500
C882        C  0.23646501  0.94307396  0.12745252     0.25700
C883        C  0.21264347  0.92804446  0.13380187    -0.18100
C884        C  0.21445263  0.93998387  0.15299525    -0.07000
C885        C  0.23470280  0.93078874  0.10793988    -0.13500
C886        C  0.23402602  0.92143782  0.09096850    -0.13200
C887        C  0.23420525  0.91178189  0.06910592     0.25600
C888        C  0.21296467  0.89198485  0.04613767    -0.18600
C889        C  0.21492601  0.88542576  0.02258661    -0.07100
C890        C  0.23807503  0.89841032  0.02177514    -0.03100
C891        C  0.25865233  0.91720990  0.04573070    -0.08500
C892        C  0.25675590  0.92391132  0.06920146    -0.16100
H893        H  0.28412691  0.50317913  0.16886127     0.12000
H894        H  0.28072960  0.98214045  0.13514566     0.11300
H895        H  0.19266086  0.90703676  0.12409279     0.11300
H896        H  0.19570669  0.92780584  0.15787113     0.11800
H897        H  0.19553204  0.88263536  0.04566437     0.11900
H898        H  0.19927729  0.87174296  0.50407581     0.11800
H899        H  0.27677981  0.92764415  0.04565931     0.12000
H900        H  0.27338482  0.93934506  0.08680884     0.10800
C901        C  0.22280040  0.88301149  0.42078890    -0.03000
C902        C  0.23206423  0.88910401  0.39293320    -0.08800
C903        C  0.22949505  0.89598679  0.37123757    -0.16500
C904        C  0.21764311  0.89694446  0.37694998     0.25700
C905        C  0.20653368  0.88889856  0.40383275    -0.18100
C906        C  0.20893662  0.88184193  0.42548837    -0.07000
C907        C  0.21903953  0.90840273  0.35649615    -0.13500
C908        C  0.22164866  0.91946580  0.34036055    -0.13200
C909        C  0.22566830  0.93365514  0.32171100     0.25600
C910        C  0.25206762  0.96206732  0.32000021    -0.18600
C911        C  0.25602525  0.97582281  0.30207819    -0.07100
C912        C  0.23361481  0.96148059  0.28554305    -0.03100
C913        C  0.20714907  0.93296127  0.28748181    -0.08500
C914        C  0.20325021  0.91922188  0.30532539    -0.16100
H915        H  0.24319401  0.89060661  0.38880948     0.12000
H916        H  0.23815505  0.90205594  0.35061878     0.11300
H917        H  0.19730715  0.88949842  0.40871597     0.11300
H918        H  0.20208730  0.87783948  0.44683837     0.11800
H919        H  0.26967882  0.97363534  0.33247517     0.11900
H920        H  0.27669290  0.99771347  0.30110048     0.11800
H921        H  0.18942954  0.92114665  0.27490340     0.12000
H922        H  0.18269541  0.89727637  0.30627373     0.10800
C923        C  0.26578157  0.61376506  0.42904009    -0.03000
C924        C  0.28421504  0.62017902  0.43005355    -0.08800
C925        C  0.28462965  0.61238041  0.40591420    -0.16500
C926        C  0.26659464  0.59798004  0.38039376     0.25700
C927        C  0.24950001  0.59317496  0.37840083    -0.18100
C928        C  0.24914085  0.60107541  0.40253330    -0.07000
C929        C  0.26364963  0.58566845  0.35790029    -0.13500
C930        C  0.26068635  0.57420043  0.34106536    -0.13200
C931        C  0.25742218  0.56021082  0.32260712     0.25600
C932        C  0.23174764  0.53411027  0.30787063    -0.18600
C933        C  0.22867649  0.52053817  0.29030389    -0.07100
C934        C  0.25128530  0.53290040  0.28719179    -0.03100
C935        C  0.27691469  0.55900751  0.30232878    -0.08500
C936        C  0.27991361  0.57248746  0.31989819    -0.16100
H937        H  0.29652048  0.62892074  0.45033573     0.12000
H938        H  0.29783956  0.61609190  0.40786517     0.11300
H939        H  0.23539741  0.58202134  0.35882505     0.11300
H940        H  0.23453389  0.59560827  0.40120413     0.11800
H941        H  0.21412015  0.52428762  0.30985477     0.11900
H942        H  0.20869294  0.00057157  0.27879634     0.11800
H943        H  0.29477644  0.56919660  0.30036488     0.12000
H944        H  0.29985445  0.59258333  0.33129070     0.10800
C945        C  0.26995007  0.61590866  0.03239042    -0.03000
C946        C  0.28998153  0.62440319  0.03236084    -0.08800
C947        C  0.29238050  0.61753224  0.05443103    -0.16500
C948        C  0.27491090  0.60219859  0.07694467     0.25700
C949        C  0.25643027  0.59557050  0.07834875    -0.18100
C950        C  0.25406298  0.60246675  0.55642212    -0.07000
C951        C  0.27404737  0.59109056  0.09694788    -0.13500
C952        C  0.27131438  0.57988488  0.11283577    -0.13200
C953        C  0.26655380  0.56518660  0.13148364     0.25600
C954        C  0.24068686  0.54033373  0.14140919    -0.18600
C955        C  0.23602182  0.52618635  0.15971026    -0.07100
C956        C  0.25722604  0.53672243  0.16861783    -0.03100
C957        C  0.28308401  0.56157111  0.15831658    -0.08500
C958        C  0.28765515  0.57559864  0.13984767    -0.16100
H959        H  0.30223984  0.63433348  0.01406268     0.12000
H960        H  0.30683775  0.62289392  0.05300774     0.11300
H961        H  0.24284415  0.58383633  0.09563137     0.11300
H962        H  0.23847287  0.59564647  0.55714476     0.11800
H963        H  0.22411493  0.53194327  0.13515266     0.11900
H964        H  0.21589888  0.00720218  0.16729812     0.11800
H965        H  0.29985561  0.57026289  0.16464732     0.12000
H966        H  0.30774069  0.59470004  0.13229475     0.10800
C967        C  0.38835576  0.72737392  0.43266291    -0.03000
C968        C  0.39861693  0.74024062  0.40641597    -0.08800
C969        C  0.40452546  0.73670454  0.38495546    -0.16500
C970        C  0.40028321  0.72021313  0.38923867     0.25700
C971        C  0.38811752  0.70567569  0.41430205    -0.18100
C972        C  0.38206857  0.70910658  0.43577360    -0.07000
C973        C  0.41074830  0.72036008  0.36941596    -0.13500
C974        C  0.42147564  0.72259165  0.35359841    -0.13200
C975        C  0.43599035  0.72716694  0.33513890     0.25600
C976        C  0.42425663  0.70535728  0.32459648    -0.18600
C977        C  0.43837828  0.70999489  0.30661982    -0.07100
C978        C  0.46462108  0.73660421  0.29890552    -0.03100
C979        C  0.47631401  0.75839084  0.30984590    -0.08500
C980        C  0.46214625  0.75370028  0.32768330    -0.16100
H981        H  0.40399098  0.75467683  0.40353663     0.12000
H982        H  0.41384385  0.74807945  0.36577201     0.11300
H983        H  0.38467200  0.69283590  0.41806096     0.11300
H984        H  0.37470495  0.69932374  0.45593108     0.11800
H985        H  0.40410223  0.68470296  0.33012993     0.11900
H986        H  0.42866000  0.69269928  0.29861472     0.11800
H987        H  0.49634140  0.77910655  0.30430405     0.12000
H988        H  0.47161084  0.77084613  0.33557459     0.10800
C989        C  0.46871104  0.74290412  0.18004818    -0.03000
C990        C  0.48228801  0.76597844  0.17320461    -0.08800
C991        C  0.46883124  0.76279832  0.15464556    -0.16500
C992        C  0.44158702  0.73653989  0.14269640     0.25700
C993        C  0.42800794  0.71349608  0.14915493    -0.18100
C994        C  0.44143001  0.71662325  0.16765317    -0.07000
C995        C  0.42777541  0.73333445  0.12348674    -0.13500
C996        C  0.41727263  0.73153808  0.10653988    -0.13200
C997        C  0.40710185  0.73134094  0.08456656     0.25600
C998        C  0.38768702  0.71039504  0.06119951    -0.18600
C999        C  0.38177968  0.71291422  0.03701913    -0.07100
C1000       C  0.39544446  0.73657603  0.03580565    -0.03100
C1001       C  0.41302427  0.75627983  0.06056391    -0.08500
C1002       C  0.41889436  0.75372966  0.08468840    -0.16100
H1003       H  0.00320971  0.78647704  0.18245781     0.12000
H1004       H  0.47965284  0.78083614  0.14973448     0.11300
H1005       H  0.40698087  0.69307080  0.13999659     0.11300
H1006       H  0.43028180  0.69839338  0.17256255     0.11800
H1007       H  0.37834940  0.69291872  0.06081752     0.11900
H1008       H  0.36835861  0.69750715  0.01826336     0.11800
H1009       H  0.42368953  0.77461585  0.06040467     0.12000
H1010       H  0.43384035  0.77002808  0.10265190     0.10800
C1011       C  0.25745183  0.72881956  0.17814521    -0.03000
C1012       C  0.28422475  0.74964957  0.17175100    -0.08800
C1013       C  0.28887172  0.74383558  0.15255665    -0.16500
C1014       C  0.26693279  0.71708146  0.13913881     0.25700
C1015       C  0.24015690  0.69620942  0.14519472    -0.18100
C1016       C  0.23546004  0.70197937  0.16449497    -0.07000
C1017       C  0.27212517  0.71132029  0.11935123    -0.13500
C1018       C  0.27795656  0.70805558  0.10300312    -0.13200
C1019       C  0.28719159  0.70658437  0.08347591     0.25600
C1020       C  0.27524871  0.69453386  0.05420097    -0.18600
C1021       C  0.28692801  0.69691043  0.03426503    -0.07100
C1022       C  0.31092413  0.71157068  0.04316882    -0.03100
C1023       C  0.32156683  0.72184638  0.07307423    -0.08500
C1024       C  0.30984279  0.71937419  0.09296497    -0.16100
H1025       H  0.30173259  0.77051246  0.18183608     0.12000
H1026       H  0.30971630  0.76030388  0.14827201     0.11300
H1027       H  0.22285802  0.67539081  0.13510316     0.11300
H1028       H  0.21458704  0.68536227  0.16883631     0.11800
H1029       H  0.25778195  0.68458160  0.04631276     0.11900
H1030       H  0.27860635  0.68938881  0.01131750     0.11800
H1031       H  0.34032802  0.73373935  0.08050079     0.12000
H1032       H  0.31944353  0.72883247  0.11540252     0.10800
C1033       C  0.31911047  0.72193471  0.44586711    -0.03000
C1034       C  0.33552272  0.74195423  0.42578980    -0.08800
C1035       C  0.32399499  0.73930928  0.40321449    -0.16500
C1036       C  0.29575213  0.71648723  0.39992217     0.25700
C1037       C  0.27890556  0.69545593  0.41851012    -0.18100
C1038       C  0.29047998  0.69809414  0.44124465    -0.07000
C1039       C  0.28483414  0.71594432  0.37875063    -0.13500
C1040       C  0.27809990  0.71815982  0.36150403    -0.13200
C1041       C  0.27217772  0.72303120  0.34108043     0.25600
C1042       C  0.24507656  0.70176273  0.33041579    -0.18600
C1043       C  0.23962593  0.70662990  0.31045248    -0.07100
C1044       C  0.26119363  0.73292094  0.30076751    -0.03100
C1045       C  0.28832338  0.75420388  0.31182040    -0.08500
C1046       C  0.29372118  0.74928348  0.33172286    -0.16100
H1047       H  0.35760172  0.76050349  0.42856760     0.12000
H1048       H  0.33735313  0.75569944  0.38903735     0.11300
H1049       H  0.25698935  0.67757617  0.41625891     0.11300
H1050       H  0.27726654  0.68240223  0.45637322     0.11800
H1051       H  0.22812641  0.68134775  0.33739848     0.11900
H1052       H  0.21849283  0.68972098  0.30245490     0.11800
H1053       H  0.30546200  0.77465498  0.30486582     0.12000
H1054       H  0.31479974  0.76600500  0.33971860     0.10800
C1055       C  0.22153661  0.81905141  0.44377393    -0.03000
C1056       C  0.24012010  0.83575761  0.42215728    -0.08800
C1057       C  0.23877283  0.82550681  0.39952313    -0.16500
C1058       C  0.21878167  0.79826788  0.39785127     0.25700
C1059       C  0.19894596  0.78089795  0.41806258    -0.18100
C1060       C  0.20023395  0.79116017  0.44076151    -0.07000
C1061       C  0.22005434  0.78904998  0.37684315    -0.13500
C1062       C  0.22275797  0.78276356  0.35990101    -0.13100
C1063       C  0.22695805  0.77610842  0.33980390     0.25600
C1064       C  0.20502752  0.74874712  0.32903078    -0.18600
C1065       C  0.20901833  0.74240998  0.30936972    -0.07100
C1066       C  0.23509680  0.76330733  0.30000024    -0.03100
C1067       C  0.25708411  0.79072384  0.31117001    -0.08500
C1068       C  0.25304314  0.79701676  0.33079915    -0.16100
H1069       H  0.25692246  0.85737409  0.42399001     0.12000
H1070       H  0.25422759  0.83928900  0.38416477     0.11300
H1071       H  0.18325657  0.75975494  0.41717691     0.11300
H1072       H  0.18590406  0.77785822  0.45724701     0.11800
H1073       H  0.18471958  0.73223833  0.33569393     0.11900
H1074       H  0.19157404  0.72109660  0.30133048     0.11800
H1075       H  0.27744011  0.80742004  0.30452582     0.12000
H1076       H  0.27031702  0.81829258  0.33883250     0.10800
C1077       C  0.22983224  0.75829436  0.17762760    -0.03000
C1078       C  0.20248939  0.73724733  0.16836347    -0.08800
C1079       C  0.19664222  0.74208307  0.14944128    -0.16500
C1080       C  0.21795847  0.76801447  0.13926408     0.25700
C1081       C  0.24522710  0.78897068  0.14805782    -0.18100
C1082       C  0.25112350  0.78420706  0.16705910    -0.07000
C1083       C  0.21200159  0.77328005  0.12007493    -0.13500
C1084       C  0.20831947  0.77889394  0.10401212    -0.13200
C1085       C  0.20658317  0.78795935  0.08443089     0.25600
C1086       C  0.19270099  0.77463170  0.05592472    -0.18600
C1087       C  0.19536116  0.78640886  0.03529304    -0.07100
C1088       C  0.21219550  0.81186792  0.04277078    -0.03100
C1089       C  0.22402483  0.82379357  0.07215666    -0.08500
C1090       C  0.22127031  0.81197687  0.09274860    -0.16100
H1091       H  0.18553751  0.71708701  0.17609923     0.12000
H1092       H  0.17544424  0.72560288  0.14293306     0.11300
H1093       H  0.26201106  0.80914190  0.14041352     0.11300
H1094       H  0.27238763  0.80091738  0.17367460     0.11800
H1095       H  0.18122624  0.75604633  0.04903888     0.11900
H1096       H  0.18645881  0.77698459  0.01276720     0.11800
H1097       H  0.23747167  0.84360428  0.07844855     0.12000
H1098       H  0.23210797  0.82258607  0.11463114     0.10800
O1099       O  0.22872578  0.71558129  0.70739392    -0.74100
O1100       O  0.21864213  0.73176406  0.76702461    -0.74100
O1101       O  0.21625779  0.72938585  0.70723324    -0.74200
O1102       O  0.23080493  0.71774307  0.76726621    -0.74200
O1103       O  0.27536165  0.76209952  0.77052789    -0.74200
O1104       O  0.26080700  0.77371973  0.71015932    -0.74100
O1105       O  0.26316415  0.77610738  0.77000262    -0.74100
O1106       O  0.27326488  0.75992994  0.71077129    -0.74200
Ni1107     Ni  0.22205805  0.72207324  0.73709483     1.25400
Ni1108     Ni  0.26970047  0.76950755  0.74045527     1.25400
C1109       C  0.25284493  0.73505481  0.69963770     0.88100
C1110       C  0.23918147  0.75671024  0.77808539     0.88000
C1111       C  0.23598656  0.75355671  0.69917728     0.88000
C1112       C  0.25551209  0.73787674  0.77858629     0.88200
N1113       N  0.37762982  0.72482525  0.98318992    -0.03100
C1114       C  0.39174893  0.73881988  0.95918521    -0.00500
C1115       C  0.41786659  0.76664768  0.96800414    -0.23400
C1116       C  0.42084590  0.76961151  0.49814202    -0.23600
C1117       C  0.39633407  0.74356861  0.50697211    -0.00600
H1118       H  0.43462180  0.78236490  0.95440183     0.13100
H1119       H  0.44012655  0.78807024  0.51178670     0.13200
N1120       N  0.31954811  0.71028598  0.49334727    -0.03100
C1121       C  0.32914357  0.72342809  0.52072729    -0.00500
C1122       C  0.35213771  0.75127242  0.51879423    -0.23400
C1123       C  0.35388266  0.75470497  0.98953588    -0.23600
C1124       C  0.33242116  0.72897581  0.97442921    -0.00600
H1125       H  0.36243328  0.76621087  0.53628902     0.13100
H1126       H  0.36612716  0.77281943  0.98087496     0.13200
C1127       C  0.32155719  0.69862700  0.48894231     0.03500
C1128       C  0.34746263  0.71616450  0.48683903    -0.12700
C1129       C  0.35048380  0.70587983  0.98359816     0.01000
C1130       C  0.32713028  0.67744128  0.98225825    -0.11200
C1131       C  0.30105434  0.65939657  0.98430519     0.03500
C1132       C  0.29843346  0.67015129  0.98773780    -0.10600
H1133       H  0.36565743  0.73820219  0.48824157     0.09100
H1134       H  0.32938142  0.66950543  0.97996066     0.06600
H1135       H  0.27837782  0.65627829  0.98932380     0.06400
N1136       N  0.27690420  0.63002040  0.98206376    -0.03100
C1137       C  0.25924390  0.61398214  0.95700120    -0.00500
C1138       C  0.23245785  0.59019740  0.96404164    -0.23400
C1139       C  0.23366886  0.59079954  0.99416432    -0.23600
C1140       C  0.26118955  0.61495489  0.00481002    -0.00600
H1141       H  0.21410290  0.57231014  0.94900588     0.13100
H1142       H  0.21634755  0.57340930  0.00632439     0.13200
O1143       O  0.26242000  0.50071747  0.76041796    -0.74100
O1144       O  0.27344157  0.53527326  0.70247533    -0.74100
O1145       O  0.27035825  0.53304840  0.76131419    -0.74200
O1146       O  0.26554234  0.50314600  0.70155902    -0.74200
O1147       O  0.22035624  0.96569608  0.69356820    -0.74200
O1148       O  0.22514014  0.99551074  0.75374864    -0.74100
O1149       O  0.22827401  0.99794832  0.69498679    -0.74100
O1150       O  0.21721740  0.96309015  0.75240970    -0.74200
Ni1151     Ni  0.26950960  0.51934568  0.73176576     1.25400
Ni1152     Ni  0.22113814  0.97921999  0.72345333     1.25400
C1153       C  0.23796491  0.97586896  0.76535992     0.88100
C1154       C  0.25273922  0.52254543  0.68953913     0.88000
C1155       C  0.24871686  0.51967277  0.76673899     0.88000
C1156       C  0.24212179  0.97932448  0.68794817     0.88200
O1157       O  0.46710515  0.72120937  0.76578006    -0.74100
O1158       O  0.50332193  0.73450283  0.70848217    -0.74100
O1159       O  0.50065775  0.73081019  0.76738368    -0.74200
O1160       O  0.46946517  0.72461338  0.70691344    -0.74200
O1161       O  0.00609223  0.76970711  0.71457626    -0.74200
O1162       O  0.03739103  0.77591996  0.77521692    -0.74100
O1163       O  0.03989654  0.77955250  0.71625326    -0.74100
O1164       O  0.00378250  0.76629627  0.77340193    -0.74200
Ni1165     Ni  0.48387136  0.72621194  0.73684654     1.25400
Ni1166     Ni  0.02308682  0.77445264  0.74513549     1.25400
C1167       C  0.47923637  0.74156107  0.77858658     0.88100
C1168       C  0.02785485  0.75931011  0.70326833     0.88000
C1169       C  0.02437901  0.75442876  0.78096798     0.88000
C1170       C  0.48219445  0.74593439  0.70129170     0.88200
N1171       N  0.21100191  0.82001794  0.49200525    -0.03100
C1172       C  0.22908997  0.83242745  0.97261022    -0.00500
C1173       C  0.25474952  0.85325792  0.98729873    -0.23400
C1174       C  0.25195850  0.85176254  0.51661852    -0.23600
C1175       C  0.22454935  0.82973447  0.51911958    -0.00600
H1176       H  0.27226819  0.86484630  0.97809664     0.13100
H1177       H  0.26687440  0.86170733  0.53385781     0.13200
C1178       C  0.19867972  0.82136655  0.48846496     0.03500
C1179       C  0.21415087  0.84516427  0.97875397    -0.12700
C1180       C  0.20429570  0.84869421  0.97812341     0.01000
C1181       C  0.17822577  0.82780881  0.48699296    -0.11200
C1182       C  0.16214640  0.80381542  0.49670807     0.03500
C1183       C  0.17266143  0.80087443  0.49771536    -0.10600
H1184       H  0.23475371  0.86188933  0.97302823     0.09100
H1185       H  0.17044636  0.83022505  0.98629062     0.06600
H1186       H  0.16034393  0.78241300  0.50509479     0.06400
N1187       N  0.13373777  0.78079531  0.50107684    -0.03100
C1188       C  0.12250173  0.76808430  0.52636973    -0.00500
C1189       C  0.09775609  0.73978556  0.51898302    -0.23400
C1190       C  0.09242634  0.73518872  0.98883360    -0.23600
C1191       C  0.11430454  0.76071282  0.97854046    -0.00600
H1192       H  0.08249826  0.72403716  0.53371833     0.13100
H1193       H  0.07286075  0.71557583  0.97647947     0.13200
N1194       N  0.22247247  0.87503654  0.97234708    -0.03100
C1195       C  0.23450994  0.88612558  0.94667537    -0.00500
C1196       C  0.26279230  0.91212215  0.95308570    -0.23400
C1197       C  0.26800641  0.91862388  0.98290697    -0.23600
C1198       C  0.24284346  0.89604361  0.99396329    -0.00600
H1199       H  0.27752589  0.92703674  0.93749743     0.13100
H1200       H  0.28743262  0.93897015  0.99431750     0.13200
C1201       C  0.11087149  0.76497764  0.95117958    -0.03000
C1202       C  0.09774992  0.74818307  0.92481461    -0.08800
C1203       C  0.09007617  0.74900705  0.90077800    -0.16500
C1204       C  0.09534344  0.76652591  0.90296855     0.25700
C1205       C  0.10913410  0.78385148  0.92885664    -0.18100
C1206       C  0.11668126  0.78297078  0.95281408    -0.07000
C1207       C  0.08466921  0.76523491  0.87990482    -0.13500
C1208       C  0.07477785  0.76381601  0.86224158    -0.13200
C1209       C  0.06207864  0.76153706  0.84219691     0.25600
C1210       C  0.07613488  0.78497673  0.83644075    -0.18600
C1211       C  0.06374257  0.78267957  0.81694958    -0.07100
C1212       C  0.03706106  0.75685140  0.80293768    -0.03100
C1213       C  0.02299721  0.73338694  0.80919246    -0.08500
C1214       C  0.03541637  0.73573795  0.82867369    -0.16100
H1215       H  0.09255954  0.73375935  0.92324250     0.12000
H1216       H  0.07919466  0.73531478  0.88093045     0.11300
H1217       H  0.11296217  0.79717895  0.93102703     0.11300
H1218       H  0.12537219  0.79502965  0.97326553     0.11800
H1219       H  0.09672889  0.80505186  0.84689746     0.11900
H1220       H  0.07517143  0.80115379  0.81260868     0.11800
H1221       H  0.50243307  0.71316652  0.79881633     0.12000
H1222       H  0.02425225  0.71742157  0.83307095     0.10800
C1223       C  0.12418440  0.77837238  0.55244281    -0.03000
C1224       C  0.13083421  0.79693648  0.54918252    -0.08800
C1225       C  0.12369356  0.79962189  0.56965851    -0.16500
C1226       C  0.10998884  0.78400435  0.59392012     0.25700
C1227       C  0.10547483  0.76732649  0.59861529    -0.18100
C1228       C  0.11264996  0.76468270  0.57826820    -0.07000
C1229       C  0.09856301  0.78319655  0.61261926    -0.13500
C1230       C  0.08713522  0.78035988  0.62781792    -0.13200
C1231       C  0.07201781  0.77515699  0.64597763     0.25600
C1232       C  0.08386191  0.79680717  0.65803269    -0.18600
C1233       C  0.06940654  0.79165702  0.67616726    -0.07100
C1234       C  0.04270978  0.76468890  0.68262868    -0.03100
C1235       C  0.03084467  0.74304789  0.67006793    -0.08500
C1236       C  0.04533744  0.74824374  0.65200233    -0.16100
H1237       H  0.13955531  0.80775120  0.52963630     0.12000
H1238       H  0.12759282  0.81281001  0.56568796     0.11300
H1239       H  0.09513243  0.75524419  0.61729203     0.11300
H1240       H  0.10734693  0.75034456  0.58167466     0.11800
H1241       H  0.10440772  0.81775141  0.65365632     0.11900
H1242       H  0.07928739  0.80887704  0.68538359     0.11800
H1243       H  0.01044295  0.72205982  0.67452611     0.12000
H1244       H  0.03575866  0.73119816  0.64292410     0.10800
C1245       C  0.24017961  0.96716395  0.66613723    -0.03000
C1246       C  0.26401682  0.98222205  0.65921669    -0.08800
C1247       C  0.26215109  0.97025841  0.64000790    -0.16500
C1248       C  0.23647775  0.94308022  0.62745819     0.25700
C1249       C  0.21265597  0.92804529  0.63382703    -0.18100
C1250       C  0.21446758  0.93998741  0.65301878    -0.07000
C1251       C  0.23471291  0.93079267  0.60794511    -0.13500
C1252       C  0.23403314  0.92143950  0.59097208    -0.13200
C1253       C  0.23420927  0.91178163  0.56910678     0.25600
C1254       C  0.21296009  0.89197451  0.54614802    -0.18600
C1255       C  0.21491778  0.88541393  0.52259272    -0.07100
C1256       C  0.23807152  0.89840664  0.52176746    -0.03100
C1257       C  0.25865758  0.91721595  0.54571449    -0.08500
C1258       C  0.25676504  0.92391924  0.56918910    -0.16100
H1259       H  0.28413343  0.50320111  0.66884967     0.12000
H1260       H  0.28074488  0.98215857  0.63511621     0.11300
H1261       H  0.19267137  0.90703149  0.62413401     0.11300
H1262       H  0.19572156  0.92780511  0.65790986     0.11800
H1263       H  0.19552305  0.88261829  0.54568492     0.11900
H1264       H  0.19929308  0.87176283  0.00406312     0.11800
H1265       H  0.27678884  0.92765647  0.54563313     0.12000
H1266       H  0.27340059  0.93936071  0.58678902     0.10800
C1267       C  0.22283002  0.88303446  0.92079746    -0.03000
C1268       C  0.23210276  0.88913462  0.89294595    -0.08800
C1269       C  0.22953620  0.89601885  0.87124805    -0.16500
C1270       C  0.21767831  0.89697052  0.87695369     0.25700
C1271       C  0.20656182  0.88891877  0.90383244    -0.18100
C1272       C  0.20896217  0.88186075  0.92549020    -0.07000
C1273       C  0.21907357  0.90842678  0.85649705    -0.13500
C1274       C  0.22168002  0.91948720  0.84035998    -0.13200
C1275       C  0.22569651  0.93367394  0.82171010     0.25600
C1276       C  0.25209419  0.96208682  0.82000166    -0.18600
C1277       C  0.25604910  0.97584032  0.80208031    -0.07100
C1278       C  0.23363752  0.96149543  0.78554336    -0.03100
C1279       C  0.20717327  0.93297534  0.78747964    -0.08500
C1280       C  0.20327713  0.91923785  0.80532271    -0.16100
H1281       H  0.24323583  0.89064069  0.88882749     0.12000
H1282       H  0.23820194  0.90209282  0.85063238     0.11300
H1283       H  0.19733096  0.88951418  0.90871042     0.11300
H1284       H  0.20210604  0.87785259  0.94683729     0.11800
H1285       H  0.26970628  0.97365702  0.83247815     0.11900
H1286       H  0.27671567  0.99773171  0.80110466     0.11800
H1287       H  0.18945310  0.92115888  0.77489979     0.12000
H1288       H  0.18272354  0.89729177  0.80626938     0.10800
C1289       C  0.26579901  0.61380227  0.92900368    -0.03000
C1290       C  0.28423025  0.62021343  0.93001604    -0.08800
C1291       C  0.28464147  0.61241160  0.90587671    -0.16500
C1292       C  0.26660593  0.59801161  0.88035710     0.25700
C1293       C  0.24951703  0.59321356  0.87836317    -0.18100
C1294       C  0.24916127  0.60111728  0.90249577    -0.07000
C1295       C  0.26365225  0.58569047  0.85786839    -0.13500
C1296       C  0.26068406  0.57421506  0.84104292    -0.13200
C1297       C  0.25741885  0.56022003  0.82260020     0.25600
C1298       C  0.23173844  0.53410466  0.80789154    -0.18600
C1299       C  0.22866777  0.52052883  0.79033930    -0.07100
C1300       C  0.25128269  0.53290171  0.78721477    -0.03100
C1301       C  0.27691772  0.55902319  0.80232552    -0.08500
C1302       C  0.27991637  0.57250714  0.81987973    -0.16100
H1303       H  0.29653501  0.62895358  0.95029800     0.12000
H1304       H  0.29784768  0.61611858  0.90782797     0.11300
H1305       H  0.23541478  0.58206116  0.85878761     0.11300
H1306       H  0.23455711  0.59565373  0.90116666     0.11800
H1307       H  0.21410610  0.52427356  0.80988553     0.11900
H1308       H  0.20870949  0.00057730  0.77881253     0.11800
H1309       H  0.29478445  0.56922121  0.80035094     0.12000
H1310       H  0.29986188  0.59261456  0.83125105     0.10800
C1311       C  0.26995906  0.61591149  0.53243036    -0.03000
C1312       C  0.28998861  0.62440354  0.53239926    -0.08800
C1313       C  0.29239133  0.61753774  0.55447335    -0.16500
C1314       C  0.27492797  0.60221247  0.57699258     0.25700
C1315       C  0.25645084  0.59558877  0.57839860    -0.18100
C1316       C  0.25404639  0.60245386  0.05637639    -0.07000
C1317       C  0.27406511  0.59110603  0.59699823    -0.13500
C1318       C  0.27133157  0.57990003  0.61288616    -0.13200
C1319       C  0.26656866  0.56519945  0.63153195     0.25600
C1320       C  0.24070146  0.54034761  0.64145764    -0.18600
C1321       C  0.23603331  0.52619670  0.65975503    -0.07100
C1322       C  0.25723467  0.53672830  0.66865868    -0.03100
C1323       C  0.28309312  0.56157631  0.65835780    -0.08500
C1324       C  0.28766735  0.57560733  0.63989238    -0.16100
H1325       H  0.30224137  0.63432661  0.51409709     0.12000
H1326       H  0.30684578  0.62289586  0.55304860     0.11300
H1327       H  0.24286953  0.58386098  0.59568555     0.11300
H1328       H  0.23845456  0.59563135  0.05709801     0.11800
H1329       H  0.22413173  0.53196056  0.63520383     0.11900
H1330       H  0.21593956  0.00724987  0.66734671     0.11800
H1331       H  0.29986262  0.57026472  0.66468603     0.12000
H1332       H  0.30775297  0.59470791  0.63233908     0.10800
C1333       C  0.38835515  0.72738452  0.93267854    -0.03000
C1334       C  0.39860817  0.74024478  0.90642802    -0.08800
C1335       C  0.40450891  0.73670233  0.88496287    -0.16500
C1336       C  0.40026721  0.72021131  0.88924580     0.25700
C1337       C  0.38810875  0.70567974  0.91431313    -0.18100
C1338       C  0.38206729  0.70911671  0.93578892    -0.07000
C1339       C  0.41072765  0.72035428  0.86941984    -0.13500
C1340       C  0.42145190  0.72258220  0.85360206    -0.13200
C1341       C  0.43596395  0.72715355  0.83514400     0.25600
C1342       C  0.42423152  0.70534313  0.82461334    -0.18600
C1343       C  0.43835103  0.70997715  0.80663847    -0.07100
C1344       C  0.46459034  0.73658356  0.79891461    -0.03100
C1345       C  0.47628219  0.75837111  0.80984377    -0.08500
C1346       C  0.46211644  0.75368403  0.82767906    -0.16100
H1347       H  0.40398258  0.75468130  0.90354914     0.12000
H1348       H  0.41382177  0.74807270  0.86577641     0.11300
H1349       H  0.38466401  0.69284057  0.91807181     0.11300
H1350       H  0.37471007  0.69933903  0.95594926     0.11800
H1351       H  0.40407985  0.68469106  0.83015460     0.11900
H1352       H  0.42863389  0.69268105  0.79864232     0.11800
H1353       H  0.49630692  0.77908462  0.80429449     0.12000
H1354       H  0.47158007  0.77083047  0.83556155     0.10800
C1355       C  0.46866674  0.74285890  0.68005082    -0.03000
C1356       C  0.48223984  0.76593047  0.67320522    -0.08800
C1357       C  0.46878141  0.76274647  0.65464117    -0.16500
C1358       C  0.44153940  0.73648687  0.64268872     0.25700
C1359       C  0.42796402  0.71344559  0.64914883    -0.18100
C1360       C  0.44138784  0.71657666  0.66765250    -0.07000
C1361       C  0.42772706  0.73327881  0.62347466    -0.13500
C1362       C  0.41722862  0.73148629  0.60652533    -0.13200
C1363       C  0.40706774  0.73129901  0.58455073     0.25600
C1364       C  0.38764878  0.71035284  0.56118466    -0.18600
C1365       C  0.38175050  0.71288023  0.53700313    -0.07100
C1366       C  0.39542768  0.73654997  0.53578794    -0.03100
C1367       C  0.41301227  0.75625504  0.56054545    -0.08500
C1368       C  0.41887409  0.75369713  0.58467050    -0.16100
H1369       H  0.00322682  0.78648029  0.68240218     0.12000
H1370       H  0.47959996  0.78078223  0.64972881     0.11300
H1371       H  0.40693862  0.69301944  0.63998774     0.11300
H1372       H  0.43024280  0.69834886  0.67256324     0.11800
H1373       H  0.37830059  0.69286935  0.56080437     0.11900
H1374       H  0.36832574  0.69747193  0.51824831     0.11800
H1375       H  0.42368640  0.77459666  0.56038604     0.12000
H1376       H  0.43382367  0.76999606  0.60263345     0.10800
C1377       C  0.25746520  0.72883515  0.67813215    -0.03000
C1378       C  0.28423911  0.74966376  0.67174485    -0.08800
C1379       C  0.28888626  0.74385020  0.65254931    -0.16500
C1380       C  0.26694657  0.71709805  0.63912307     0.25700
C1381       C  0.24016996  0.69622790  0.64517179    -0.18100
C1382       C  0.23547292  0.70199725  0.66447331    -0.07000
C1383       C  0.27213801  0.71133566  0.61933546    -0.13500
C1384       C  0.27796459  0.70806528  0.60298834    -0.13200
C1385       C  0.28719093  0.70658325  0.58346305     0.25600
C1386       C  0.27525647  0.69454486  0.55418378    -0.18600
C1387       C  0.28692933  0.69691150  0.53425171    -0.07100
C1388       C  0.31091052  0.71154930  0.54316365    -0.03100
C1389       C  0.32154307  0.72181159  0.57307273    -0.08500
C1390       C  0.30982556  0.71934957  0.59295956    -0.16100
H1391       H  0.30174735  0.77052484  0.68183656     0.12000
H1392       H  0.30973159  0.76031725  0.64827059     0.11300
H1393       H  0.22287042  0.67541087  0.63507379     0.11300
H1394       H  0.21459923  0.68538137  0.66880875     0.11800
H1395       H  0.25780237  0.68461043  0.54628976     0.11900
H1396       H  0.27861626  0.68940103  0.51130138     0.11800
H1397       H  0.34029320  0.73368760  0.58050590     0.12000
H1398       H  0.31941946  0.72879785  0.61540060     0.10800
C1399       C  0.31911010  0.72193819  0.94585744    -0.03000
C1400       C  0.33552013  0.74194796  0.92576756    -0.08800
C1401       C  0.32399221  0.73930043  0.90318747    -0.16500
C1402       C  0.29575152  0.71648582  0.89990416     0.25700
C1403       C  0.27890626  0.69546294  0.91850524    -0.18100
C1404       C  0.29048071  0.69810339  0.94124387    -0.07000
C1405       C  0.28483569  0.71594442  0.87873072    -0.13500
C1406       C  0.27810293  0.71816133  0.86148404    -0.13200
C1407       C  0.27218216  0.72303448  0.84106187     0.25600
C1408       C  0.24508160  0.70176603  0.83039398    -0.18600
C1409       C  0.23963214  0.70663509  0.81043291    -0.07100
C1410       C  0.26120046  0.73292800  0.80075348    -0.03100
C1411       C  0.28832959  0.75421080  0.81180943    -0.08500
C1412       C  0.29372622  0.74928853  0.83170970    -0.16100
H1413       H  0.35759842  0.76049323  0.92854034     0.12000
H1414       H  0.33734925  0.75568421  0.88900051     0.11300
H1415       H  0.25699173  0.67758926  0.91626152     0.11300
H1416       H  0.27726947  0.68241975  0.95638307     0.11800
H1417       H  0.22813106  0.68134972  0.83737253     0.11900
H1418       H  0.21849950  0.68972617  0.80243266     0.11800
H1419       H  0.30546862  0.77466331  0.80485901     0.12000
H1420       H  0.31480438  0.76601008  0.83970816     0.10800
C1421       C  0.22156449  0.81907181  0.94379947    -0.03000
C1422       C  0.24016291  0.83578570  0.92219735    -0.08800
C1423       C  0.23881883  0.82553715  0.89956439    -0.16500
C1424       C  0.21881607  0.79829263  0.89787877     0.25700
C1425       C  0.19896827  0.78091706  0.91807642    -0.18100
C1426       C  0.20025299  0.79117704  0.94077395    -0.07000
C1427       C  0.22008507  0.78907192  0.87686770    -0.13500
C1428       C  0.22278364  0.78278181  0.85992110    -0.13100
C1429       C  0.22697844  0.77612345  0.83981689     0.25600
C1430       C  0.20504457  0.74876183  0.82903838    -0.18600
C1431       C  0.20903113  0.74242265  0.80937025    -0.07100
C1432       C  0.23510856  0.76331819  0.79999869    -0.03100
C1433       C  0.25709884  0.79073470  0.81117380    -0.08500
C1434       C  0.25306222  0.79702959  0.83080986    -0.16100
H1435       H  0.25697169  0.85740467  0.92403929     0.12000
H1436       H  0.25428293  0.83932391  0.88421675     0.11300
H1437       H  0.18326961  0.75976970  0.91718011     0.11300
H1438       H  0.18591032  0.77786820  0.95724724     0.11800
H1439       H  0.18473739  0.73225445  0.83570290     0.11900
H1440       H  0.19158458  0.72110926  0.80132751     0.11800
H1441       H  0.27745433  0.80742971  0.80452891     0.12000
H1442       H  0.27033873  0.81830552  0.83884694     0.10800
C1443       C  0.22984570  0.75830849  0.67761598    -0.03000
C1444       C  0.20250353  0.73726709  0.66836401    -0.08800
C1445       C  0.19665837  0.74210490  0.64944222    -0.16500
C1446       C  0.21797595  0.76803252  0.63925272     0.25700
C1447       C  0.24524371  0.78898222  0.64803237    -0.18100
C1448       C  0.25113816  0.78421673  0.66703375    -0.07000
C1449       C  0.21202128  0.77330142  0.62006731    -0.13500
C1450       C  0.20834073  0.77891804  0.60400845    -0.13200
C1451       C  0.20660694  0.78798706  0.58443139     0.25600
C1452       C  0.19269175  0.77463780  0.55593963    -0.18600
C1453       C  0.19535135  0.78641369  0.53530562    -0.07100
C1454       C  0.21221764  0.81189249  0.54276676    -0.03100
C1455       C  0.22408011  0.82384125  0.57214208    -0.08500
C1456       C  0.22132718  0.81202666  0.59273577    -0.16100
H1457       H  0.18555093  0.71711031  0.67611022     0.12000
H1458       H  0.17546111  0.72562972  0.64294476     0.11300
H1459       H  0.26202869  0.80915029  0.64037788     0.11300
H1460       H  0.27240185  0.80092230  0.67363884     0.11800
H1461       H  0.18119032  0.75603454  0.54906464     0.11900
H1462       H  0.18642121  0.77696980  0.51278795     0.11800
H1463       H  0.23755037  0.84366619  0.57842122     0.12000
H1464       H  0.23219023  0.82265253  0.61460724     0.10800
O1465       O  0.72872666  0.21557503  0.20739989    -0.74100
O1466       O  0.71864978  0.23176753  0.26702173    -0.74100
O1467       O  0.71626079  0.22938152  0.20723115    -0.74200
O1468       O  0.73081210  0.21774603  0.26727157    -0.74200
O1469       O  0.77536877  0.26210217  0.27052720    -0.74200
O1470       O  0.76081000  0.27371504  0.21015210    -0.74100
O1471       O  0.76317175  0.27611063  0.26999473    -0.74100
O1472       O  0.77326586  0.25992323  0.21077046    -0.74200
Ni1473     Ni  0.72206276  0.22207225  0.23709674     1.25400
Ni1474     Ni  0.76970525  0.26950622  0.24045095     1.25400
C1475       C  0.75284454  0.23504652  0.19964168     0.88100
C1476       C  0.73918946  0.25671483  0.27807763     0.88000
C1477       C  0.73598901  0.25355133  0.19917199     0.88000
C1478       C  0.75552016  0.23788071  0.27858917     0.88200
N1479       N  0.87762710  0.22481033  0.48318036    -0.03100
C1480       C  0.89175100  0.23880997  0.45917920    -0.00500
C1481       C  0.91786609  0.26663737  0.46800323    -0.23400
C1482       C  0.92085567  0.26962169  0.99814321    -0.23600
C1483       C  0.89634083  0.24358057  0.00697467    -0.00600
H1484       H  0.93462381  0.28235801  0.45440467     0.13100
H1485       H  0.94013704  0.28807877  0.01178788     0.13200
N1486       N  0.81955358  0.21029761  0.99333731    -0.03100
C1487       C  0.82914280  0.22343559  0.02071770    -0.00500
C1488       C  0.85212919  0.25127826  0.01878736    -0.23400
C1489       C  0.85389679  0.25470552  0.48953696    -0.23600
C1490       C  0.83243518  0.22897914  0.47442181    -0.00600
H1491       H  0.86241662  0.26621170  0.03628280     0.13100
H1492       H  0.86614689  0.27282470  0.48088341     0.13200
C1493       C  0.82156310  0.19863902  0.98893575     0.03500
C1494       C  0.84746903  0.21617694  0.98683655    -0.12700
C1495       C  0.85048167  0.20586671  0.48358452     0.01000
C1496       C  0.82712696  0.17742806  0.48225456    -0.11200
C1497       C  0.80105268  0.15938642  0.48430345     0.03500
C1498       C  0.79843510  0.17014441  0.48773090    -0.10600
H1499       H  0.86566367  0.23821460  0.98823904     0.09100
H1500       H  0.82937592  0.16948982  0.47996355     0.06600
H1501       H  0.77838111  0.15627397  0.48932057     0.06400
N1502       N  0.77690047  0.13000983  0.48206818    -0.03100
C1503       C  0.75923855  0.11396915  0.45700708    -0.00500
C1504       C  0.73245314  0.09018694  0.46404921    -0.23400
C1505       C  0.73366603  0.09079354  0.49417240    -0.23600
C1506       C  0.76118711  0.11494852  0.50481631    -0.00600
H1507       H  0.71409718  0.07229862  0.44901515     0.13100
H1508       H  0.71634537  0.07340571  0.50633497     0.13200
O1509       O  0.76239698  0.00069601  0.26040878    -0.74100
O1510       O  0.77343613  0.03526367  0.20246268    -0.74100
O1511       O  0.77034474  0.03303455  0.26130049    -0.74200
O1512       O  0.76552733  0.00312829  0.20155211    -0.74200
O1513       O  0.72035284  0.46568821  0.19355518    -0.74200
O1514       O  0.72513377  0.49550476  0.25372515    -0.74100
O1515       O  0.72826503  0.49793563  0.19496332    -0.74100
O1516       O  0.71721574  0.46308799  0.25239736    -0.74200
Ni1517     Ni  0.76949518  0.01932982  0.23175525     1.25400
Ni1518     Ni  0.72113297  0.47921262  0.22343530     1.25400
C1519       C  0.73796489  0.47587043  0.26535060     0.88100
C1520       C  0.75273756  0.02254010  0.18952127     0.88000
C1521       C  0.74870461  0.01966200  0.26672068     0.88000
C1522       C  0.74211956  0.47931825  0.18793643     0.88200
O1523       O  0.96714052  0.22124379  0.26575145    -0.74100
O1524       O  0.00336271  0.23454176  0.20845968    -0.74100
O1525       O  0.00069354  0.23084573  0.26736037    -0.74200
O1526       O  0.96950534  0.22465178  0.20688573    -0.74200
O1527       O  0.50609383  0.26970213  0.21453769    -0.74200
O1528       O  0.53738671  0.27591640  0.27519439    -0.74100
O1529       O  0.53989813  0.27954788  0.21623039    -0.74100
O1530       O  0.50377696  0.26629166  0.27336290    -0.74200
Ni1531     Ni  0.98390949  0.22624887  0.23682066     1.25400
Ni1532     Ni  0.52308509  0.27444812  0.24510485     1.25400
C1533       C  0.97927029  0.24159431  0.27855878     0.88100
C1534       C  0.52785639  0.25930521  0.20324653     0.88000
C1535       C  0.52437537  0.25442605  0.28094845     0.88000
C1536       C  0.98223448  0.24597283  0.20126479     0.88200
N1537       N  0.71100643  0.32001202  0.99199914    -0.03100
C1538       C  0.72910102  0.33243780  0.47257837    -0.00500
C1539       C  0.75476243  0.35326571  0.48725790    -0.23400
C1540       C  0.75196152  0.35175605  0.01661709    -0.23600
C1541       C  0.72455149  0.32972653  0.01911459    -0.00600
H1542       H  0.77227556  0.36484784  0.47804764     0.13100
H1543       H  0.76687610  0.36169996  0.03385811     0.13200
C1544       C  0.69868552  0.32136201  0.98845854     0.03500
C1545       C  0.71417393  0.34518665  0.47874516    -0.12700
C1546       C  0.70431860  0.34871659  0.47811724     0.01000
C1547       C  0.67823629  0.32780919  0.98699031    -0.11200
C1548       C  0.66215227  0.30381169  0.99669766     0.03500
C1549       C  0.67266519  0.30086834  0.99770366    -0.10600
H1550       H  0.73477825  0.36191342  0.47302331     0.09100
H1551       H  0.67046690  0.33024535  0.48628175     0.06600
H1552       H  0.66034448  0.28240399  0.00507764     0.06400
N1553       N  0.63374169  0.28079034  0.00105674    -0.03100
C1554       C  0.62249600  0.26807026  0.02634372    -0.00500
C1555       C  0.59774964  0.23977281  0.01894604    -0.23400
C1556       C  0.59244417  0.23520544  0.48880805    -0.23600
C1557       C  0.61432354  0.26073012  0.47851586    -0.00600
H1558       H  0.58248550  0.22401901  0.03367407     0.13100
H1559       H  0.57287860  0.21559314  0.47645299     0.13200
N1560       N  0.72249641  0.37506028  0.47234818    -0.03100
C1561       C  0.73453897  0.38615597  0.44668013    -0.00500
C1562       C  0.76282037  0.41215448  0.45309709    -0.23400
C1563       C  0.76802771  0.41864900  0.48291952    -0.23600
C1564       C  0.74286202  0.39606313  0.49396964    -0.00600
H1565       H  0.77755647  0.42707364  0.43751315     0.13100
H1566       H  0.78745048  0.43899378  0.49433522     0.13200
C1567       C  0.61089055  0.26499638  0.45115697    -0.03000
C1568       C  0.59776604  0.24820071  0.42479147    -0.08800
C1569       C  0.59008899  0.24902327  0.40075869    -0.16500
C1570       C  0.59535545  0.26654136  0.40295298     0.25700
C1571       C  0.60915028  0.28386911  0.42884086    -0.18100
C1572       C  0.61670104  0.28299002  0.45279427    -0.07000
C1573       C  0.58467634  0.26524738  0.37989408    -0.13500
C1574       C  0.57478092  0.26382499  0.36223331    -0.13200
C1575       C  0.56207826  0.26154228  0.34218874     0.25600
C1576       C  0.57613177  0.28497999  0.33643052    -0.18600
C1577       C  0.56373783  0.28267988  0.31693636    -0.07100
C1578       C  0.53705746  0.25685076  0.30292328    -0.03100
C1579       C  0.52299586  0.23338808  0.30918092    -0.08500
C1580       C  0.53541663  0.23574199  0.32866528    -0.16100
H1581       H  0.59257527  0.23377673  0.42321688     0.12000
H1582       H  0.57920459  0.23532948  0.38091087     0.11300
H1583       H  0.61297823  0.29719631  0.43101401     0.11300
H1584       H  0.62539531  0.29505095  0.47324695     0.11800
H1585       H  0.59672514  0.30505590  0.34688710     0.11900
H1586       H  0.57516505  0.30115288  0.31259346     0.11800
H1587       H  0.00246124  0.21319884  0.29880487     0.12000
H1588       H  0.52425466  0.21742713  0.33306392     0.10800
C1589       C  0.62417462  0.27835296  0.05242020    -0.03000
C1590       C  0.63083824  0.29692845  0.04916959    -0.08800
C1591       C  0.62369831  0.29961440  0.06964625    -0.16500
C1592       C  0.60997992  0.28398552  0.09389879     0.25700
C1593       C  0.60545071  0.26729458  0.09858472    -0.18100
C1594       C  0.61262555  0.26465062  0.07823729    -0.07000
C1595       C  0.59855677  0.28318097  0.11259790    -0.13500
C1596       C  0.58713112  0.28034713  0.12779630    -0.13200
C1597       C  0.57201574  0.27514717  0.14595555     0.25600
C1598       C  0.58387165  0.29680191  0.15803203    -0.18600
C1599       C  0.56941782  0.29165380  0.17616664    -0.07100
C1600       C  0.54271121  0.26468335  0.18260767    -0.03100
C1601       C  0.53083452  0.24303815  0.17002535    -0.08500
C1602       C  0.54532540  0.24823183  0.15195893    -0.16100
H1603       H  0.63957072  0.30775313  0.02962988     0.12000
H1604       H  0.62760941  0.31281265  0.06568295     0.11300
H1605       H  0.59509755  0.25520329  0.11725439     0.11300
H1606       H  0.60731189  0.25030368  0.08163682     0.11800
H1607       H  0.60442539  0.31774793  0.15367242     0.11900
H1608       H  0.57930776  0.30887709  0.18539970     0.11800
H1609       H  0.51042450  0.22204797  0.17446632     0.12000
H1610       H  0.53573724  0.23118270  0.14286361     0.10800
C1611       C  0.74017969  0.46715896  0.16612781    -0.03000
C1612       C  0.76401820  0.48221833  0.15921071    -0.08800
C1613       C  0.76215487  0.47025604  0.14000445    -0.16500
C1614       C  0.73648264  0.44307795  0.12745374     0.25700
C1615       C  0.71265965  0.42804204  0.13381828    -0.18100
C1616       C  0.71446885  0.43998278  0.15300764    -0.07000
C1617       C  0.73472010  0.43079113  0.10794497    -0.13500
C1618       C  0.73404113  0.42143746  0.09097564    -0.13200
C1619       C  0.73421636  0.41177761  0.06911339     0.25600
C1620       C  0.71297211  0.39197715  0.04614904    -0.18600
C1621       C  0.71493047  0.38541620  0.02259606    -0.07100
C1622       C  0.73808035  0.39840254  0.02177814    -0.03100
C1623       C  0.75866068  0.41720427  0.04573083    -0.08500
C1624       C  0.75676716  0.42390746  0.06920372    -0.16100
H1625       H  0.78411626  0.00316773  0.16888280     0.12000
H1626       H  0.78074955  0.48215697  0.13511588     0.11300
H1627       H  0.69267589  0.40702834  0.12412415     0.11300
H1628       H  0.69572193  0.42779973  0.15789564     0.11800
H1629       H  0.69553894  0.38262692  0.04567995     0.11900
H1630       H  0.69930885  0.37178095  0.50405318     0.11800
H1631       H  0.77678885  0.42763965  0.04565480     0.12000
H1632       H  0.77339888  0.43934371  0.08680830     0.10800
C1633       C  0.72285928  0.38306422  0.42080084    -0.03000
C1634       C  0.73213870  0.38917268  0.39295187    -0.08800
C1635       C  0.72956919  0.39605453  0.37125463    -0.16500
C1636       C  0.71770153  0.39699550  0.37695894     0.25700
C1637       C  0.70657886  0.38893562  0.40383482    -0.18100
C1638       C  0.70898200  0.38187983  0.42549179    -0.07000
C1639       C  0.71909272  0.40844893  0.35650382    -0.13500
C1640       C  0.72169545  0.41950661  0.34036748    -0.13200
C1641       C  0.72570738  0.43368941  0.32171655     0.25600
C1642       C  0.75210037  0.46210665  0.32002604    -0.18600
C1643       C  0.75605141  0.47585551  0.30209972    -0.07100
C1644       C  0.73364033  0.46150145  0.28554041    -0.03100
C1645       C  0.70718048  0.43297737  0.28746045    -0.08500
C1646       C  0.70328836  0.41924445  0.30530782    -0.16100
H1647       H  0.74327884  0.39068674  0.38883487     0.12000
H1648       H  0.73823968  0.40213477  0.35064129     0.11300
H1649       H  0.69734023  0.38952269  0.40871182     0.11300
H1650       H  0.70212035  0.37786489  0.44683660     0.11800
H1651       H  0.76971199  0.47368368  0.33251939     0.11900
H1652       H  0.77671464  0.49775055  0.30113764     0.11800
H1653       H  0.68946110  0.42115421  0.27486316     0.12000
H1654       H  0.68273843  0.39729489  0.30624039     0.10800
C1655       C  0.76579178  0.11378677  0.42901014    -0.03000
C1656       C  0.78422128  0.12019573  0.43002294    -0.08800
C1657       C  0.78463352  0.11239549  0.40588253    -0.16500
C1658       C  0.76660071  0.09799934  0.38036149     0.25700
C1659       C  0.74951245  0.09320207  0.37836815    -0.18100
C1660       C  0.74915546  0.10110392  0.40250192    -0.07000
C1661       C  0.76364934  0.08568170  0.35786944    -0.13500
C1662       C  0.76068140  0.07420803  0.34103959    -0.13200
C1663       C  0.75741410  0.06021287  0.32259134     0.25600
C1664       C  0.73173822  0.03410970  0.30786004    -0.18600
C1665       C  0.72866457  0.02053248  0.29030365    -0.07100
C1666       C  0.75127206  0.03289202  0.28719729    -0.03100
C1667       C  0.77690260  0.05900164  0.30232952    -0.08500
C1668       C  0.77990409  0.07248675  0.31988828    -0.16100
H1669       H  0.79652436  0.12893369  0.45030543     0.12000
H1670       H  0.79783881  0.11610134  0.40783347     0.11300
H1671       H  0.73541203  0.08205222  0.35879160     0.11300
H1672       H  0.73455237  0.09564172  0.40117287     0.11800
H1673       H  0.71411178  0.02428908  0.30984008     0.11900
H1674       H  0.70870129  0.50057149  0.27878180     0.11800
H1675       H  0.79476361  0.06918907  0.30036952     0.12000
H1676       H  0.79984586  0.09258453  0.33127712     0.10800
C1677       C  0.76997465  0.11592496  0.03242508    -0.03000
C1678       C  0.79000171  0.12441405  0.03238242    -0.08800
C1679       C  0.79240828  0.11754919  0.05445094    -0.16500
C1680       C  0.77495105  0.10222744  0.07697599     0.25700
C1681       C  0.75647630  0.09560619  0.07839287    -0.18100
C1682       C  0.75404898  0.10245652  0.55638685    -0.07000
C1683       C  0.77409113  0.09112170  0.09697718    -0.13500
C1684       C  0.77135632  0.07991410  0.11286370    -0.13200
C1685       C  0.76658725  0.06520862  0.13150955     0.25600
C1686       C  0.74071587  0.04035374  0.14142581    -0.18600
C1687       C  0.73604128  0.02619828  0.15972438    -0.07100
C1688       C  0.75724018  0.03672800  0.16863889    -0.03100
C1689       C  0.78310295  0.06157903  0.15834712    -0.08500
C1690       C  0.78768372  0.07561479  0.13988056    -0.16100
H1691       H  0.80224944  0.13433425  0.01407575     0.12000
H1692       H  0.80686084  0.12290540  0.05301748     0.11300
H1693       H  0.74289963  0.08388108  0.09568425     0.11300
H1694       H  0.73846553  0.09564512  0.55711135     0.11800
H1695       H  0.72414764  0.03196781  0.13516390     0.11900
H1696       H  0.71592007  0.50722176  0.16730724     0.11800
H1697       H  0.79987094  0.07026641  0.16468374     0.12000
H1698       H  0.80777264  0.09471771  0.13233498     0.10800
C1699       C  0.88836644  0.22738211  0.43267342    -0.03000
C1700       C  0.89862040  0.24024457  0.40642449    -0.08800
C1701       C  0.90452796  0.23670916  0.38496022    -0.16500
C1702       C  0.90029266  0.22022333  0.38924231     0.25700
C1703       C  0.88813504  0.20569074  0.41430884    -0.18100
C1704       C  0.88208661  0.20912058  0.43578384    -0.07000
C1705       C  0.91075681  0.22037133  0.36941468    -0.13500
C1706       C  0.92148275  0.22260303  0.35359282    -0.13200
C1707       C  0.93599527  0.22717778  0.33512830     0.25600
C1708       C  0.92426795  0.20537075  0.32459891    -0.18600
C1709       C  0.93838795  0.21000782  0.30661871    -0.07100
C1710       C  0.96462276  0.23661399  0.29888829    -0.03100
C1711       C  0.97630925  0.25839811  0.30981504    -0.08500
C1712       C  0.96214289  0.25370794  0.32765569    -0.16100
H1713       H  0.90398942  0.25467696  0.40354599     0.12000
H1714       H  0.91384037  0.24808047  0.36577456     0.11300
H1715       H  0.88469544  0.19285572  0.41806708     0.11300
H1716       H  0.87472940  0.19934194  0.45594327     0.11800
H1717       H  0.90412009  0.18471903  0.33014578     0.11900
H1718       H  0.92867508  0.19271432  0.29862466     0.11800
H1719       H  0.99633027  0.27911113  0.30426047     0.12000
H1720       H  0.97160236  0.27085169  0.33553677     0.10800
C1721       C  0.96870557  0.24289688  0.18002614    -0.03000
C1722       C  0.98227910  0.26596837  0.17317790    -0.08800
C1723       C  0.96881775  0.26278315  0.15461984    -0.16500
C1724       C  0.94157232  0.23652241  0.14267649     0.25700
C1725       C  0.92799694  0.21348141  0.14913848    -0.18100
C1726       C  0.94142366  0.21661368  0.16763572    -0.07000
C1727       C  0.92775574  0.23331207  0.12346981    -0.13500
C1728       C  0.91725118  0.23151445  0.10652526    -0.13200
C1729       C  0.90708160  0.23131901  0.08455334     0.25600
C1730       C  0.88766701  0.21037403  0.06118556    -0.18600
C1731       C  0.88176388  0.21289678  0.03700431    -0.07100
C1732       C  0.89543236  0.23656098  0.03579095    -0.03100
C1733       C  0.91301111  0.25626346  0.06055029    -0.08500
C1734       C  0.91887724  0.25370986  0.08467558    -0.16100
H1735       H  0.50322853  0.28647559  0.18237029     0.12000
H1736       H  0.97963651  0.28081881  0.14970560     0.11300
H1737       H  0.90696901  0.19305439  0.13998425     0.11300
H1738       H  0.93027812  0.19838592  0.17254884     0.11800
H1739       H  0.87832720  0.19289626  0.06080326     0.11900
H1740       H  0.86834389  0.19749082  0.01824765     0.11800
H1741       H  0.92367904  0.27460116  0.06039114     0.12000
H1742       H  0.93382327  0.27000769  0.10263974     0.10800
C1743       C  0.75746103  0.22882206  0.17813912    -0.03000
C1744       C  0.78423285  0.24964925  0.17174443    -0.08800
C1745       C  0.78887625  0.24383133  0.15255057    -0.16500
C1746       C  0.76693475  0.21707611  0.13913376     0.25700
C1747       C  0.74016017  0.19620705  0.14519064    -0.18100
C1748       C  0.73546687  0.20198081  0.16449033    -0.07000
C1749       C  0.77212250  0.21131032  0.11934559    -0.13500
C1750       C  0.77794824  0.20804006  0.10299597    -0.13200
C1751       C  0.78717649  0.20656218  0.08346603     0.25600
C1752       C  0.77524303  0.19452735  0.05418581    -0.18600
C1753       C  0.78692048  0.19690235  0.03424842    -0.07100
C1754       C  0.81090527  0.21154522  0.04315625    -0.03100
C1755       C  0.82153645  0.22180298  0.07306596    -0.08500
C1756       C  0.80981417  0.21933232  0.09295814    -0.16100
H1757       H  0.80174231  0.27051274  0.18182846     0.12000
H1758       H  0.80972004  0.26029750  0.14826522     0.11300
H1759       H  0.72285934  0.17538766  0.13509994     0.11300
H1760       H  0.71459473  0.18536590  0.16883202     0.11800
H1761       H  0.75778670  0.18459030  0.04629525     0.11900
H1762       H  0.77860869  0.18939553  0.01129759     0.11800
H1763       H  0.84028936  0.23368292  0.08049578     0.12000
H1764       H  0.81940735  0.22877809  0.11539981     0.10800
C1765       C  0.81913021  0.22195050  0.44585079    -0.03000
C1766       C  0.83554372  0.24196915  0.42577203    -0.08800
C1767       C  0.82401710  0.23932383  0.40319347    -0.16500
C1768       C  0.79577450  0.21650264  0.39990016     0.25700
C1769       C  0.77892682  0.19547210  0.41848962    -0.18100
C1770       C  0.79049997  0.19811046  0.44122689    -0.07000
C1771       C  0.78485769  0.21596045  0.37872786    -0.13500
C1772       C  0.77812285  0.21817569  0.36148262    -0.13200
C1773       C  0.77219887  0.22304628  0.34106246     0.25600
C1774       C  0.74509775  0.20177379  0.33038928    -0.18600
C1775       C  0.73964522  0.20664034  0.31042962    -0.07100
C1776       C  0.76121109  0.23293470  0.30075674    -0.03100
C1777       C  0.78834074  0.25422155  0.31181818    -0.08500
C1778       C  0.79374038  0.24930184  0.33171732    -0.16100
H1779       H  0.85762267  0.26051819  0.42855167     0.12000
H1780       H  0.83737597  0.25571348  0.38901513     0.11300
H1781       H  0.75701093  0.17759332  0.41623773     0.11300
H1782       H  0.77728570  0.18241935  0.45635683     0.11800
H1783       H  0.72814916  0.18135619  0.33736242     0.11900
H1784       H  0.71851242  0.18972836  0.30242468     0.11800
H1785       H  0.80547797  0.27467533  0.30487293     0.12000
H1786       H  0.81481891  0.26602648  0.33972013     0.10800
C1787       C  0.72156540  0.31907633  0.44376605    -0.03000
C1788       C  0.74015424  0.33578578  0.42215468    -0.08800
C1789       C  0.73880806  0.32553622  0.39951987    -0.16500
C1790       C  0.71881274  0.29829525  0.39784202     0.25700
C1791       C  0.69897261  0.28092280  0.41804836    -0.18100
C1792       C  0.70025943  0.29118376  0.44074776    -0.07000
C1793       C  0.72008418  0.28907673  0.37683201    -0.13500
C1794       C  0.72278554  0.28278860  0.35988809    -0.13100
C1795       C  0.72698248  0.27613081  0.33978909     0.25600
C1796       C  0.70504904  0.24876918  0.32901216    -0.18600
C1797       C  0.70903739  0.24242957  0.30935074    -0.07100
C1798       C  0.73511608  0.26332460  0.29998442    -0.03100
C1799       C  0.75710592  0.29074140  0.31115707    -0.08500
C1800       C  0.75306755  0.29703680  0.33078681    -0.16100
H1801       H  0.75695906  0.35740324  0.42399171     0.12000
H1802       H  0.75426622  0.33932041  0.38416542     0.11300
H1803       H  0.68327990  0.25977821  0.41715802     0.11300
H1804       H  0.68592479  0.27787885  0.45722869     0.11800
H1805       H  0.68474107  0.23226220  0.33567300     0.11900
H1806       H  0.69159101  0.22111601  0.30130906     0.11800
H1807       H  0.77746219  0.30743593  0.30451538     0.12000
H1808       H  0.77034361  0.31831276  0.33882289     0.10800
C1809       C  0.72984712  0.25830161  0.17760978    -0.03000
C1810       C  0.70250446  0.23725624  0.16834961    -0.08800
C1811       C  0.69665798  0.24209258  0.14942747    -0.16500
C1812       C  0.71797475  0.26802273  0.13924635     0.25700
C1813       C  0.74524311  0.28897669  0.14803461    -0.18100
C1814       C  0.75113885  0.28421252  0.16703594    -0.07000
C1815       C  0.71201871  0.27328994  0.12006039    -0.13500
C1816       C  0.70833779  0.27890595  0.10400102    -0.13200
C1817       C  0.70660438  0.28797500  0.08442359     0.25600
C1818       C  0.69269370  0.27462876  0.05592991    -0.18600
C1819       C  0.69535449  0.28640562  0.03529614    -0.07100
C1820       C  0.71221761  0.31188239  0.04275960    -0.03100
C1821       C  0.72407551  0.32382792  0.07213632    -0.08500
C1822       C  0.72132122  0.31201224  0.09272985    -0.16100
H1823       H  0.68555243  0.21709732  0.17608934     0.12000
H1824       H  0.67546026  0.22561420  0.14292319     0.11300
H1825       H  0.76202735  0.30914679  0.14038683     0.11300
H1826       H  0.77240285  0.30092131  0.17364797     0.11800
H1827       H  0.68119519  0.25602749  0.04905355     0.11900
H1828       H  0.68642815  0.27696451  0.01277740     0.11800
H1829       H  0.73754344  0.34365142  0.07841709     0.12000
H1830       H  0.73218084  0.32263573  0.11460286     0.10800
O1831       O  0.72873279  0.21558387  0.70738062    -0.74100
O1832       O  0.71865683  0.23177421  0.76700846    -0.74100
O1833       O  0.71626876  0.22939218  0.70721780    -0.74200
O1834       O  0.73081818  0.21775230  0.76725343    -0.74200
O1835       O  0.77537487  0.26210853  0.77051150    -0.74200
O1836       O  0.76081846  0.27372521  0.71013968    -0.74100
O1837       O  0.76317872  0.27611756  0.76998259    -0.74100
O1838       O  0.77327253  0.25993167  0.71075389    -0.74200
Ni1839     Ni  0.72206960  0.22208035  0.73708052     1.25400
Ni1840     Ni  0.76971234  0.26951417  0.74043667     1.25400
C1841       C  0.75285059  0.23505539  0.69962236     0.88100
C1842       C  0.73919644  0.25672090  0.77806642     0.88000
C1843       C  0.73599775  0.25356263  0.69915990     0.88000
C1844       C  0.75552579  0.23788687  0.77857318     0.88200
N1845       N  0.87762413  0.22481528  0.98317348    -0.03100
C1846       C  0.89174511  0.23881084  0.95916995    -0.00500
C1847       C  0.91786323  0.26663806  0.96799109    -0.23400
C1848       C  0.92085519  0.26961800  0.49815514    -0.23600
C1849       C  0.89634140  0.24357492  0.50698321    -0.00600
H1850       H  0.93461987  0.28235557  0.95439035     0.13100
H1851       H  0.94013455  0.28807549  0.51180236     0.13200
N1852       N  0.81956366  0.21030191  0.49333450    -0.03100
C1853       C  0.82915478  0.22344172  0.52071402    -0.00500
C1854       C  0.85214597  0.25128545  0.51878219    -0.23400
C1855       C  0.85388038  0.25469943  0.98954270    -0.23600
C1856       C  0.83242346  0.22897487  0.97442577    -0.00600
H1857       H  0.86243675  0.26622139  0.53627650     0.13100
H1858       H  0.86612770  0.27281741  0.98089015     0.13200
C1859       C  0.82157023  0.19864058  0.48893384     0.03500
C1860       C  0.84747539  0.21617625  0.48684087    -0.12700
C1861       C  0.85047834  0.20587023  0.98358117     0.01000
C1862       C  0.82712671  0.17743292  0.98225842    -0.11200
C1863       C  0.80105248  0.15938945  0.98431599     0.03500
C1864       C  0.79843103  0.17014390  0.98774201    -0.10600
H1865       H  0.86567174  0.23821441  0.48824821     0.09100
H1866       H  0.82937813  0.16949710  0.97996693     0.06600
H1867       H  0.77837674  0.15627176  0.98933832     0.06400
N1868       N  0.77690433  0.13001422  0.98209196    -0.03100
C1869       C  0.75923366  0.11396413  0.95703772    -0.00500
C1870       C  0.73245225  0.09018321  0.96409236    -0.23400
C1871       C  0.73367730  0.09080039  0.99421645    -0.23600
C1872       C  0.76120164  0.11496043  0.00484846    -0.00600
H1873       H  0.71409181  0.07228926  0.94906597     0.13100
H1874       H  0.71636302  0.07341648  0.00638709     0.13200
O1875       O  0.76239442  0.00070139  0.76040623    -0.74100
O1876       O  0.77341036  0.03525100  0.70245876    -0.74100
O1877       O  0.77032749  0.03302748  0.76129863    -0.74200
O1878       O  0.76551695  0.00312856  0.70154825    -0.74200
O1879       O  0.72031785  0.46566067  0.69358364    -0.74200
O1880       O  0.72509967  0.49547605  0.75375805    -0.74100
O1881       O  0.72823229  0.49790978  0.69499604    -0.74100
O1882       O  0.71717985  0.46305784  0.75242581    -0.74200
Ni1883     Ni  0.76948130  0.01932665  0.73175192     1.25400
Ni1884     Ni  0.72109853  0.47918460  0.72346605     1.25400
C1885       C  0.73792818  0.47583814  0.76537662     0.88100
C1886       C  0.75270676  0.02252035  0.68951981     0.88000
C1887       C  0.74868513  0.01965000  0.76672388     0.88000
C1888       C  0.74208452  0.47929112  0.68796297     0.88200
O1889       O  0.96715106  0.22125066  0.76577847    -0.74100
O1890       O  0.00337357  0.23455730  0.70847126    -0.74100
O1891       O  0.00070462  0.23085246  0.76737019    -0.74200
O1892       O  0.96951543  0.22466599  0.70691479    -0.74200
O1893       O  0.50611530  0.26972372  0.71456064    -0.74200
O1894       O  0.53740866  0.27593177  0.77520522    -0.74100
O1895       O  0.53991695  0.27956666  0.71624111    -0.74100
O1896       O  0.50380192  0.26631092  0.77338642    -0.74200
Ni1897     Ni  0.98392022  0.22625981  0.73684003     1.25400
Ni1898     Ni  0.52310705  0.27446700  0.74512221     1.25400
C1899       C  0.97928041  0.24159966  0.77859208     0.88100
C1900       C  0.52787355  0.25932384  0.70325310     0.88000
C1901       C  0.52439589  0.25443978  0.78095454     0.88000
C1902       C  0.98224332  0.24598727  0.70130194     0.88200
N1903       N  0.71102132  0.32003510  0.49199314    -0.03100
C1904       C  0.72908463  0.33241403  0.97258201    -0.00500
C1905       C  0.75474792  0.35324465  0.98725790    -0.23400
C1906       C  0.75197235  0.35177368  0.51661651    -0.23600
C1907       C  0.72456210  0.32974473  0.51911012    -0.00600
H1908       H  0.77226060  0.36482728  0.97804485     0.13100
H1909       H  0.76688374  0.36171358  0.53385920     0.13200
C1910       C  0.69870317  0.32138810  0.48845224     0.03500
C1911       C  0.71415392  0.34515857  0.97874896    -0.12700
C1912       C  0.70429713  0.34868683  0.97812007     0.01000
C1913       C  0.67825734  0.32783894  0.48698632    -0.11200
C1914       C  0.66217186  0.30384027  0.49669166     0.03500
C1915       C  0.67268289  0.30089500  0.49769618    -0.10600
H1916       H  0.73475786  0.36188544  0.97302546     0.09100
H1917       H  0.67044471  0.33021440  0.98628416     0.06600
H1918       H  0.66036102  0.28242985  0.50506924     0.06400
N1919       N  0.63376264  0.28082091  0.50105496    -0.03100
C1920       C  0.62252157  0.26810352  0.52634366    -0.00500
C1921       C  0.59777731  0.23980587  0.51894948    -0.23400
C1922       C  0.59242131  0.23517587  0.98880402    -0.23600
C1923       C  0.61430516  0.26070209  0.97851479    -0.00600
H1924       H  0.58251636  0.22405328  0.53368017     0.13100
H1925       H  0.57285673  0.21556535  0.97644575     0.13200
N1926       N  0.72247334  0.37502909  0.97234717    -0.03100
C1927       C  0.73450717  0.38611761  0.94667378    -0.00500
C1928       C  0.76278988  0.41211506  0.95308032    -0.23400
C1929       C  0.76800753  0.41861682  0.98290235    -0.23600
C1930       C  0.74284634  0.39603613  0.99396247    -0.00600
H1931       H  0.77752099  0.42702948  0.93749082     0.13100
H1932       H  0.78743457  0.43896329  0.99431184     0.13200
C1933       C  0.61088030  0.26497385  0.95115292    -0.03000
C1934       C  0.59776469  0.24818457  0.92478471    -0.08800
C1935       C  0.59009481  0.24901222  0.90074735    -0.16500
C1936       C  0.59535964  0.26652907  0.90293997     0.25700
C1937       C  0.60914604  0.28385069  0.92883080    -0.18100
C1938       C  0.61668920  0.28296617  0.95278861    -0.07000
C1939       C  0.58468542  0.26523872  0.87987713    -0.13500
C1940       C  0.57479356  0.26382053  0.86221672    -0.13200
C1941       C  0.56209392  0.26154289  0.84217622     0.25600
C1942       C  0.57614569  0.28498162  0.83643384    -0.18600
C1943       C  0.56375369  0.28268598  0.81694543    -0.07100
C1944       C  0.53707675  0.25686029  0.80292295    -0.03100
C1945       C  0.52301688  0.23339646  0.80916481    -0.08500
C1946       C  0.53543587  0.23574599  0.82864282    -0.16100
H1947       H  0.59257500  0.23376141  0.92321123     0.12000
H1948       H  0.57921672  0.23532298  0.88089736     0.11300
H1949       H  0.61297234  0.29717652  0.93100274     0.11300
H1950       H  0.62537577  0.29502143  0.97324299     0.11800
H1951       H  0.59673611  0.30505487  0.84689863     0.11900
H1952       H  0.57517944  0.30115970  0.81261491     0.11800
H1953       H  0.00248187  0.21320249  0.79877269     0.12000
H1954       H  0.52427499  0.21743019  0.83302925     0.10800
C1955       C  0.62419866  0.27838550  0.55241846    -0.03000
C1956       C  0.63085547  0.29695543  0.54916394    -0.08800
C1957       C  0.62371258  0.29963861  0.56963900    -0.16500
C1958       C  0.60999863  0.28401300  0.59389396     0.25700
C1959       C  0.60547698  0.26732856  0.59858412    -0.18100
C1960       C  0.61265439  0.26468699  0.57823797    -0.07000
C1961       C  0.59857231  0.28320503  0.61259134    -0.13500
C1962       C  0.58714471  0.28036893  0.62778875    -0.13200
C1963       C  0.57202847  0.27516722  0.64594865     0.25600
C1964       C  0.58387997  0.29682007  0.65801799    -0.18600
C1965       C  0.56942701  0.29167118  0.67615660    -0.07100
C1966       C  0.54272579  0.26470186  0.68260832    -0.03100
C1967       C  0.53085265  0.24305818  0.67003149    -0.08500
C1968       C  0.54534280  0.24825268  0.65196141    -0.16100
H1969       H  0.63958452  0.30777734  0.52962254     0.12000
H1970       H  0.62761781  0.31283191  0.56567274     0.11300
H1971       H  0.59512742  0.25524008  0.61725609     0.11300
H1972       H  0.60734619  0.25034448  0.58164033     0.11800
H1973       H  0.60442981  0.31776521  0.65365051     0.11900
H1974       H  0.57931362  0.30889308  0.68538458     0.11800
H1975       H  0.51044668  0.22206894  0.67448064     0.12000
H1976       H  0.53575822  0.23120512  0.64287136     0.10800
C1977       C  0.74014486  0.46713377  0.66614992    -0.03000
C1978       C  0.76398486  0.48219925  0.65921987    -0.08800
C1979       C  0.76212283  0.47024026  0.64000727    -0.16500
C1980       C  0.73645057  0.44305946  0.62746332     0.25700
C1981       C  0.71262578  0.42801700  0.63384157    -0.18100
C1982       C  0.71443367  0.43995456  0.65303708    -0.07000
C1983       C  0.73469017  0.43077688  0.60794743    -0.13500
C1984       C  0.73401621  0.42142936  0.59097362    -0.13200
C1985       C  0.73420124  0.41177946  0.56910962     0.25600
C1986       C  0.71296802  0.39199047  0.54613318    -0.18600
C1987       C  0.71493612  0.38543795  0.52258265    -0.07100
C1988       C  0.73808478  0.39842132  0.52177940    -0.03100
C1989       C  0.75865458  0.41721295  0.54574223    -0.08500
C1990       C  0.75675121  0.42390748  0.56921280    -0.16100
H1991       H  0.78410911  0.00316657  0.66889414     0.12000
H1992       H  0.78071881  0.48214614  0.63510820     0.11300
H1993       H  0.69264195  0.40700104  0.62415309     0.11300
H1994       H  0.69568570  0.42776685  0.65793546     0.11800
H1995       H  0.69553595  0.38264225  0.54565389     0.11900
H1996       H  0.69929422  0.37175047  0.00407493     0.11800
H1997       H  0.77678200  0.42764659  0.54567673     0.12000
H1998       H  0.77337470  0.43933531  0.58682655     0.10800
C1999       C  0.72282147  0.38302198  0.92079944    -0.03000
C2000       C  0.73209494  0.38912694  0.89294691    -0.08800
C2001       C  0.72952161  0.39600678  0.87125329    -0.16500
C2002       C  0.71765559  0.39694885  0.87696452     0.25700
C2003       C  0.70653762  0.38889129  0.90384379    -0.18100
C2004       C  0.70894481  0.38183766  0.92549741    -0.07000
C2005       C  0.71904507  0.40840219  0.85651299    -0.13500
C2006       C  0.72164864  0.41946127  0.84037873    -0.13200
C2007       C  0.72566348  0.43364719  0.82173034     0.25600
C2008       C  0.75206150  0.46205879  0.82001536    -0.18600
C2009       C  0.75601528  0.47581123  0.80209347    -0.07100
C2010       C  0.73360222  0.46146645  0.78556220    -0.03100
C2011       C  0.70713759  0.43294777  0.78750562    -0.08500
C2012       C  0.70324253  0.41921139  0.80534943    -0.16100
H2013       H  0.74323412  0.39064046  0.88882423     0.12000
H2014       H  0.73818831  0.40208506  0.85063723     0.11300
H2015       H  0.69730013  0.38947899  0.90872601     0.11300
H2016       H  0.70208721  0.37782488  0.94684489     0.11800
H2017       H  0.76967485  0.47362873  0.83248669     0.11900
H2018       H  0.77668219  0.49770151  0.80111231     0.11800
H2019       H  0.68941611  0.42113136  0.77493052     0.12000
H2020       H  0.68268859  0.39726621  0.80630120     0.10800
C2021       C  0.76577832  0.11377368  0.92903797    -0.03000
C2022       C  0.78421041  0.12018597  0.93004497    -0.08800
C2023       C  0.78461732  0.11238074  0.90590422    -0.16500
C2024       C  0.76657669  0.09797638  0.88038855     0.25700
C2025       C  0.74948511  0.09317510  0.87840073    -0.18100
C2026       C  0.74913319  0.10108162  0.90253492    -0.07000
C2027       C  0.76362245  0.08565631  0.85789613    -0.13500
C2028       C  0.76065367  0.07418256  0.84106423    -0.13200
C2029       C  0.75738762  0.06018978  0.82261139     0.25600
C2030       C  0.73171322  0.03408916  0.80787460    -0.18600
C2031       C  0.72864157  0.02051530  0.79031223    -0.07100
C2032       C  0.75124972  0.03287591  0.78720522    -0.03100
C2033       C  0.77687859  0.05898272  0.80234316    -0.08500
C2034       C  0.77987800  0.07246430  0.81990789    -0.16100
H2035       H  0.79652059  0.12893135  0.95032378     0.12000
H2036       H  0.79782548  0.11608999  0.90785095     0.11300
H2037       H  0.73537878  0.08201908  0.85882840     0.11300
H2038       H  0.73452795  0.09561668  0.90121053     0.11800
H2039       H  0.71408647  0.02426809  0.80985474     0.11900
H2040       H  0.70866374  0.50053472  0.77883071     0.11800
H2041       H  0.79473986  0.06917059  0.80038333     0.12000
H2042       H  0.79981862  0.09256007  0.83130083     0.10800
C2043       C  0.76994617  0.11590072  0.53239623    -0.03000
C2044       C  0.78996595  0.12437990  0.53236162    -0.08800
C2045       C  0.79235925  0.11750412  0.55443217    -0.16500
C2046       C  0.77489610  0.10218151  0.57695157     0.25700
C2047       C  0.75642775  0.09556896  0.57836018    -0.18100
C2048       C  0.75408469  0.10248330  0.05642207    -0.07000
C2049       C  0.77402640  0.09106904  0.59695663    -0.13500
C2050       C  0.77129061  0.07986163  0.61284586    -0.13200
C2051       C  0.76652901  0.06516317  0.63149530     0.25600
C2052       C  0.74065919  0.04030606  0.64141255    -0.18600
C2053       C  0.73599357  0.02615899  0.65971583    -0.07100
C2054       C  0.75719995  0.03669958  0.66863376    -0.03100
C2055       C  0.78306076  0.06155239  0.65834037    -0.08500
C2056       C  0.78763261  0.07557973  0.63986946    -0.16100
H2057       H  0.80221842  0.13430133  0.51405937     0.12000
H2058       H  0.80680672  0.12285337  0.55300517     0.11300
H2059       H  0.74284665  0.08384327  0.59564715     0.11300
H2060       H  0.73849646  0.09566509  0.05715366     0.11800
H2061       H  0.72408557  0.03191215  0.63514804     0.11900
H2062       H  0.71589050  0.50719874  0.66733642     0.11800
H2063       H  0.79983415  0.07024777  0.66467909     0.12000
H2064       H  0.80772035  0.09468446  0.63232301     0.10800
C2065       C  0.88835396  0.22737661  0.93266534    -0.03000
C2066       C  0.89860699  0.24023642  0.90641456    -0.08800
C2067       C  0.90451359  0.23669866  0.88495313    -0.16500
C2068       C  0.90027796  0.22021290  0.88924008     0.25700
C2069       C  0.88811867  0.20568080  0.91430713    -0.18100
C2070       C  0.88207123  0.20911300  0.93577919    -0.07000
C2071       C  0.91074598  0.22036273  0.86941894    -0.13500
C2072       C  0.92147655  0.22259714  0.85360431    -0.13200
C2073       C  0.93599463  0.22717512  0.83514882     0.25600
C2074       C  0.92426216  0.20536647  0.82460548    -0.18600
C2075       C  0.93838634  0.21000617  0.80663164    -0.07100
C2076       C  0.96463045  0.23661656  0.79892115    -0.03100
C2077       C  0.97632251  0.25840239  0.80986324    -0.08500
C2078       C  0.96215217  0.25370971  0.82769778    -0.16100
H2079       H  0.90397770  0.25466994  0.90353322     0.12000
H2080       H  0.91382683  0.24806923  0.86576678     0.11300
H2081       H  0.88467832  0.19284543  0.91806885     0.11300
H2082       H  0.87471401  0.19933572  0.95593991     0.11800
H2083       H  0.90410664  0.18471129  0.83013563     0.11900
H2084       H  0.92866870  0.19271118  0.79862515     0.11800
H2085       H  0.99635093  0.27911894  0.80432450     0.12000
H2086       H  0.97161596  0.27085493  0.83559011     0.10800
C2087       C  0.96871279  0.24291178  0.68006880    -0.03000
C2088       C  0.98228100  0.26598163  0.67323230    -0.08800
C2089       C  0.96881907  0.26279557  0.65467331    -0.16500
C2090       C  0.94157839  0.23653560  0.64271735     0.25700
C2091       C  0.92800759  0.21349628  0.64917053    -0.18100
C2092       C  0.94143471  0.21662934  0.66766865    -0.07000
C2093       C  0.92776294  0.23332418  0.62350348    -0.13500
C2094       C  0.91725795  0.23152322  0.60655106    -0.13200
C2095       C  0.90708678  0.23132264  0.58457069     0.25600
C2096       C  0.88768217  0.21038126  0.56119817    -0.18600
C2097       C  0.88177662  0.21289956  0.53701285    -0.07100
C2098       C  0.89543335  0.23655618  0.53579997    -0.03100
C2099       C  0.91300261  0.25625483  0.56056219    -0.08500
C2100       C  0.91887059  0.25370534  0.58469176    -0.16100
H2101       H  0.50324728  0.28649727  0.68239544     0.12000
H2102       H  0.97963426  0.28083007  0.64976656     0.11300
H2103       H  0.90698334  0.19306988  0.64000699     0.11300
H2104       H  0.93029291  0.19840260  0.67257278     0.11800
H2105       H  0.87835168  0.19290980  0.56081647     0.11900
H2106       H  0.86836408  0.19749695  0.51825374     0.11800
H2107       H  0.92366170  0.27458687  0.56040286     0.12000
H2108       H  0.93380885  0.27000034  0.60265915     0.10800
C2109       C  0.75746616  0.22883136  0.67811633    -0.03000
C2110       C  0.78423820  0.24965714  0.67172564    -0.08800
C2111       C  0.78888080  0.24383941  0.65252907    -0.16500
C2112       C  0.76693821  0.21708578  0.63910545     0.25700
C2113       C  0.74016324  0.19621819  0.64515750    -0.18100
C2114       C  0.73547074  0.20199176  0.66446007    -0.07000
C2115       C  0.77212588  0.21132014  0.61931686    -0.13500
C2116       C  0.77795347  0.20805119  0.60296933    -0.13200
C2117       C  0.78718515  0.20657521  0.58344489     0.25600
C2118       C  0.77525520  0.19454116  0.55416401    -0.18600
C2119       C  0.78693432  0.19691529  0.53423300    -0.07100
C2120       C  0.81091746  0.21155669  0.54314782    -0.03100
C2121       C  0.82154599  0.22181513  0.57305798    -0.08500
C2122       C  0.80982186  0.21934511  0.59294392    -0.16100
H2123       H  0.80174851  0.27051926  0.68181534     0.12000
H2124       H  0.80972477  0.26030427  0.64824746     0.11300
H2125       H  0.72286162  0.17540010  0.63506134     0.11300
H2126       H  0.71459829  0.18537798  0.66879827     0.11800
H2127       H  0.75779981  0.18460451  0.54626815     0.11900
H2128       H  0.77862449  0.18940789  0.51128165     0.11800
H2129       H  0.84029754  0.23369388  0.58049307     0.12000
H2130       H  0.81941231  0.22879034  0.61538628     0.10800
C2131       C  0.81912137  0.22194656  0.94585083    -0.03000
C2132       C  0.83553742  0.24196806  0.92577518    -0.08800
C2133       C  0.82401323  0.23932485  0.90319527    -0.16500
C2134       C  0.79577034  0.21650258  0.89989672     0.25700
C2135       C  0.77892013  0.19546847  0.91848160    -0.18100
C2136       C  0.79049099  0.19810505  0.94122088    -0.07000
C2137       C  0.78485599  0.21596334  0.87872458    -0.13500
C2138       C  0.77812325  0.21818090  0.86147949    -0.13200
C2139       C  0.77220075  0.22305262  0.84105795     0.25600
C2140       C  0.74509980  0.20178204  0.83038767    -0.18600
C2141       C  0.73964860  0.20664854  0.81042413    -0.07100
C2142       C  0.76121559  0.23294099  0.80074433    -0.03100
C2143       C  0.78834505  0.25422646  0.81180421    -0.08500
C2144       C  0.79374341  0.24930676  0.83170708    -0.16100
H2145       H  0.85761659  0.26051828  0.92855927     0.12000
H2146       H  0.83737416  0.25571719  0.88902048     0.11300
H2147       H  0.75700381  0.17758847  0.91622542     0.11300
H2148       H  0.77727480  0.18241190  0.95634852     0.11800
H2149       H  0.72815025  0.18136569  0.83736557     0.11900
H2150       H  0.71851583  0.18973788  0.80242158     0.11800
H2151       H  0.80548313  0.27467898  0.80485445     0.12000
H2152       H  0.81482179  0.26603009  0.83970776     0.10800
C2153       C  0.72154796  0.31905202  0.94376979    -0.03000
C2154       C  0.74013179  0.33576119  0.92215370    -0.08800
C2155       C  0.73878916  0.32551522  0.89951818    -0.16500
C2156       C  0.71880273  0.29827840  0.89784484     0.25700
C2157       C  0.69896713  0.28090552  0.91805643    -0.18100
C2158       C  0.70025030  0.29116281  0.94075646    -0.07000
C2159       C  0.72007947  0.28906536  0.87683413    -0.13500
C2160       C  0.72278477  0.28278158  0.85988930    -0.13100
C2161       C  0.72698474  0.27612770  0.83978839     0.25600
C2162       C  0.70505427  0.24876661  0.82901430    -0.18600
C2163       C  0.70904455  0.24243030  0.80934959    -0.07100
C2164       C  0.73512232  0.26332820  0.79997713    -0.03100
C2165       C  0.75710967  0.29074454  0.81114777    -0.08500
C2166       C  0.75306924  0.29703666  0.83078075    -0.16100
H2167       H  0.75693080  0.35737646  0.92398764     0.12000
H2168       H  0.75424372  0.33929954  0.88415976     0.11300
H2169       H  0.68328160  0.25976425  0.91716977     0.11300
H2170       H  0.68592073  0.27785897  0.95724182     0.11800
H2171       H  0.68474689  0.23225743  0.83567963     0.11900
H2172       H  0.69160025  0.22111692  0.80131010     0.11800
H2173       H  0.77746514  0.30744102  0.80450159     0.12000
H2174       H  0.77034310  0.31831234  0.83881489     0.10800
C2175       C  0.72985741  0.25831518  0.67759938    -0.03000
C2176       C  0.70251558  0.23727457  0.66834763    -0.08800
C2177       C  0.69667129  0.24211347  0.64942657    -0.16500
C2178       C  0.71798947  0.26804146  0.63923772     0.25700
C2179       C  0.74525693  0.28899063  0.64801775    -0.18100
C2180       C  0.75115050  0.28422402  0.66701830    -0.07000
C2181       C  0.71203551  0.27331083  0.62005177    -0.13500
C2182       C  0.70835409  0.27892619  0.60399157    -0.13200
C2183       C  0.70661676  0.28799111  0.58441177     0.25600
C2184       C  0.69272206  0.27465450  0.55591124    -0.18600
C2185       C  0.69538001  0.28642929  0.53527809    -0.07100
C2186       C  0.71222451  0.31189479  0.54274876    -0.03100
C2187       C  0.72406634  0.32382988  0.57213046    -0.08500
C2188       C  0.72131427  0.31201572  0.59272380    -0.16100
H2189       H  0.68556257  0.21711749  0.67609322     0.12000
H2190       H  0.67547426  0.22563878  0.64292890     0.11300
H2191       H  0.76204232  0.30915899  0.64036392     0.11300
H2192       H  0.77241398  0.30092916  0.67362357     0.11800
H2193       H  0.68123892  0.25606333  0.54903005     0.11900
H2194       H  0.68646760  0.27699741  0.51275541     0.11800
H2195       H  0.73752089  0.34364544  0.57841671     0.12000
H2196       H  0.73216148  0.32263176  0.61460206     0.10800
O2197       O  0.72872533  0.71557613  0.20741178    -0.74100
O2198       O  0.71864260  0.73176118  0.26703794    -0.74100
O2199       O  0.71625641  0.72937985  0.20724677    -0.74200
O2200       O  0.73080753  0.71774221  0.26728421    -0.74200
O2201       O  0.77536388  0.76209875  0.27054251    -0.74200
O2202       O  0.76080525  0.77371390  0.21017074    -0.74100
O2203       O  0.76316416  0.77610487  0.27001378    -0.74100
O2204       O  0.77326405  0.75992497  0.21078563    -0.74200
Ni2205     Ni  0.72205842  0.72206955  0.23711066     1.25400
Ni2206     Ni  0.76970041  0.76950405  0.24046817     1.25400
C2207       C  0.75284393  0.73504923  0.19965433     0.88100
C2208       C  0.73918133  0.75670767  0.27809625     0.88000
C2209       C  0.73598449  0.75355018  0.19918926     0.88000
C2210       C  0.75551538  0.73787677  0.27860285     0.88200
N2211       N  0.87760223  0.72478504  0.48318751    -0.03100
C2212       C  0.89172105  0.73877894  0.45918207    -0.00500
C2213       C  0.91783582  0.76660803  0.46799906    -0.23400
C2214       C  0.92086236  0.76962965  0.99817440    -0.23600
C2215       C  0.89634722  0.74358626  0.00700103    -0.00600
H2216       H  0.93459063  0.78232593  0.45439638     0.13100
H2217       H  0.94014129  0.78808627  0.01182273     0.13200
N2218       N  0.81956633  0.71030906  0.99335626    -0.03100
C2219       C  0.82915276  0.72344297  0.02073885    -0.00500
C2220       C  0.85214193  0.75128693  0.01881340    -0.23400
C2221       C  0.85386870  0.75467387  0.48956961    -0.23600
C2222       C  0.83240646  0.72894964  0.47444763    -0.00600
H2223       H  0.86242823  0.76621834  0.03631139     0.13100
H2224       H  0.86612285  0.77279681  0.48092256     0.13200
C2225       C  0.82157481  0.69864984  0.98894969     0.03500
C2226       C  0.84748111  0.71618713  0.98685928    -0.12700
C2227       C  0.85045600  0.70583971  0.48359468     0.01000
C2228       C  0.82710261  0.67740133  0.48225985    -0.11200
C2229       C  0.80102719  0.65935730  0.48430937     0.03500
C2230       C  0.79840676  0.67011248  0.48774115    -0.10600
H2231       H  0.86567735  0.73822549  0.98827267     0.09100
H2232       H  0.82935357  0.66946516  0.47996495     0.06600
H2233       H  0.77835172  0.65623996  0.48933126     0.06400
N2234       N  0.77687697  0.62998116  0.48207207    -0.03100
C2235       C  0.75921547  0.61394016  0.45701054    -0.00500
C2236       C  0.73242988  0.59015530  0.46405228    -0.23400
C2237       C  0.73364248  0.59076076  0.49417533    -0.23600
C2238       C  0.76116364  0.61491795  0.50481972    -0.00600
H2239       H  0.71407462  0.57226663  0.44901770     0.13100
H2240       H  0.71632227  0.57337176  0.50633733     0.13200
O2241       O  0.76242294  0.50072329  0.26039238    -0.74100
O2242       O  0.77343120  0.53526013  0.20242931    -0.74100
O2243       O  0.77035461  0.53304803  0.26126968    -0.74200
O2244       O  0.76553836  0.50313799  0.20153279    -0.74200
O2245       O  0.72034409  0.96568584  0.19356453    -0.74200
O2246       O  0.72512650  0.99549987  0.25374364    -0.74100
O2247       O  0.72827236  0.99794667  0.19498458    -0.74100
O2248       O  0.71719239  0.96306954  0.25240430    -0.74200
Ni2249     Ni  0.76950580  0.51934188  0.23172970     1.25400
Ni2250     Ni  0.72112502  0.97920920  0.22344900     1.25400
C2251       C  0.73793520  0.97584248  0.26535925     0.88100
C2252       C  0.75272649  0.52252814  0.18949177     0.88000
C2253       C  0.74871242  0.51967082  0.26669521     0.88000
C2254       C  0.74210941  0.97931279  0.18794880     0.88200
O2255       O  0.96713964  0.72123619  0.26577481    -0.74100
O2256       O  0.00336330  0.73454194  0.20847295    -0.74100
O2257       O  0.00069020  0.73083471  0.26737136    -0.74200
O2258       O  0.96950885  0.72465487  0.20691067    -0.74200
O2259       O  0.50609153  0.76970250  0.21456365    -0.74200
O2260       O  0.53738212  0.77590636  0.27520496    -0.74100
O2261       O  0.53989274  0.77954452  0.21624196    -0.74100
O2262       O  0.50377584  0.76628568  0.27338807    -0.74200
Ni2263     Ni  0.98390942  0.72624511  0.23683866     1.25400
Ni2264     Ni  0.52308187  0.77444344  0.24512343     1.25400
C2265       C  0.97926978  0.74158534  0.27858994     0.88100
C2266       C  0.52784935  0.75930211  0.20325192     0.88000
C2267       C  0.52436942  0.75441412  0.28095155     0.88000
C2268       C  0.98223938  0.74597776  0.20129737     0.88200
N2269       N  0.71100642  0.82001979  0.99201245    -0.03100
C2270       C  0.72906713  0.83240860  0.47260078    -0.00500
C2271       C  0.75472808  0.85323928  0.48728488    -0.23400
C2272       C  0.75195834  0.85176275  0.01663858    -0.23600
C2273       C  0.72454654  0.82972987  0.01913047    -0.00600
H2274       H  0.77224491  0.86482621  0.47807864     0.13100
H2275       H  0.76687050  0.86170478  0.03388223     0.13200
C2276       C  0.69868648  0.82137087  0.98846827     0.03500
C2277       C  0.71413025  0.84514749  0.47875758    -0.12700
C2278       C  0.70427341  0.84867588  0.47812859     0.01000
C2279       C  0.67823351  0.82781419  0.98698567    -0.11200
C2280       C  0.66215169  0.80381938  0.99670012     0.03500
C2281       C  0.67266625  0.80087784  0.99771249    -0.10600
H2282       H  0.73473341  0.86187356  0.47303178     0.09100
H2283       H  0.67042128  0.83020377  0.48629499     0.06600
H2284       H  0.66034673  0.78241513  0.00509095     0.06400
N2285       N  0.63374220  0.78079910  0.00106405    -0.03100
C2286       C  0.62250159  0.76808142  0.02635266    -0.00500
C2287       C  0.59775923  0.73978388  0.01895811    -0.23400
C2288       C  0.59240337  0.73516645  0.48883078    -0.23600
C2289       C  0.61428232  0.76069047  0.47853728    -0.00600
H2290       H  0.58249857  0.72403044  0.03368821     0.13100
H2291       H  0.57283831  0.71555340  0.47647580     0.13200
N2292       N  0.72244780  0.87501657  0.47234994    -0.03100
C2293       C  0.73447746  0.88610014  0.44667369    -0.00500
C2294       C  0.76276063  0.91209796  0.45307491    -0.23400
C2295       C  0.76798294  0.91860553  0.48289588    -0.23600
C2296       C  0.74282396  0.89602774  0.49396107    -0.00600
H2297       H  0.77748897  0.92700904  0.43748180     0.13100
H2298       H  0.78741149  0.93895405  0.49430066     0.13200
C2299       C  0.61085146  0.76495552  0.45117360    -0.03000
C2300       C  0.59773312  0.74816210  0.42480862    -0.08800
C2301       C  0.59006124  0.74898631  0.40076874    -0.16500
C2302       C  0.59532670  0.76650375  0.40295558     0.25700
C2303       C  0.60911436  0.78382827  0.42884376    -0.18100
C2304       C  0.61665977  0.78294741  0.45280403    -0.07000
C2305       C  0.58465377  0.76521272  0.37988839    -0.13500
C2306       C  0.57476374  0.76379470  0.36222336    -0.13200
C2307       C  0.56206599  0.76151723  0.34217764     0.25600
C2308       C  0.57611140  0.78495355  0.33644734    -0.18600
C2309       C  0.56372005  0.78265770  0.31695642    -0.07100
C2310       C  0.53704990  0.75683404  0.30291954    -0.03100
C2311       C  0.52299673  0.73337258  0.30914810    -0.08500
C2312       C  0.53541521  0.73572238  0.32862840    -0.16100
H2313       H  0.59254392  0.73373930  0.42323925     0.12000
H2314       H  0.57918205  0.73529474  0.38092093     0.11300
H2315       H  0.61294112  0.79715465  0.43101126     0.11300
H2316       H  0.62534892  0.79500622  0.47325588     0.11800
H2317       H  0.59669620  0.80502519  0.34692432     0.11900
H2318       H  0.57514059  0.80112961  0.31263648     0.11800
H2319       H  0.00245687  0.71317961  0.29878976     0.12000
H2320       H  0.52425942  0.71740845  0.33300505     0.10800
C2321       C  0.62417585  0.77836118  0.05242708    -0.03000
C2322       C  0.63083965  0.79693673  0.04917497    -0.08800
C2323       C  0.62369634  0.79962028  0.06964819    -0.16500
C2324       C  0.60997468  0.78398914  0.09389877     0.25700
C2325       C  0.60544569  0.76729862  0.09858689    -0.18100
C2326       C  0.61262411  0.76465721  0.07824314    -0.07000
C2327       C  0.59854915  0.78318279  0.11259434    -0.13500
C2328       C  0.58712198  0.78034744  0.12779127    -0.13200
C2329       C  0.57200604  0.77514628  0.14595080     0.25600
C2330       C  0.58386351  0.79680106  0.15803309    -0.18600
C2331       C  0.56941021  0.79165220  0.17617059    -0.07100
C2332       C  0.54270279  0.76468102  0.18260858    -0.03100
C2333       C  0.53082423  0.74303570  0.17001974    -0.08500
C2334       C  0.54531459  0.74823015  0.15195041    -0.16100
H2335       H  0.63957535  0.80776368  0.02963672     0.12000
H2336       H  0.62760768  0.81281862  0.06568380     0.11300
H2337       H  0.59509034  0.75520597  0.11725567     0.11300
H2338       H  0.60731145  0.75031123  0.08164464     0.11800
H2339       H  0.60441817  0.81774760  0.15367636     0.11900
H2340       H  0.57930138  0.80887545  0.18540870     0.11800
H2341       H  0.51041350  0.72204500  0.17445830     0.12000
H2342       H  0.53572541  0.73118104  0.14285046     0.10800
C2343       C  0.74016898  0.96715489  0.16613517    -0.03000
C2344       C  0.76400753  0.98221571  0.15921316    -0.08800
C2345       C  0.76214414  0.97025523  0.14000127    -0.16500
C2346       C  0.73647185  0.94307748  0.12744984     0.25700
C2347       C  0.71264864  0.92803988  0.13381981    -0.18100
C2348       C  0.71445792  0.93997894  0.15301466    -0.07000
C2349       C  0.73470984  0.93079308  0.10793481    -0.13500
C2350       C  0.73403357  0.92144314  0.09096166    -0.13200
C2351       C  0.73421367  0.91178835  0.06909800     0.25600
C2352       C  0.71296554  0.89198028  0.04613845    -0.18600
C2353       C  0.71492551  0.88542043  0.02258623    -0.07100
C2354       C  0.73808042  0.89841463  0.02176461    -0.03100
C2355       C  0.75866592  0.91722567  0.04571220    -0.08500
C2356       C  0.75677115  0.92392832  0.06918368    -0.16100
H2357       H  0.78412683  0.50317048  0.16888034     0.12000
H2358       H  0.78073899  0.98215747  0.13510868     0.11300
H2359       H  0.69266479  0.90702635  0.12412549     0.11300
H2360       H  0.69571101  0.92779477  0.15790671     0.11800
H2361       H  0.69552710  0.88262215  0.04567276     0.11900
H2362       H  0.69927122  0.87174064  0.50407900     0.11800
H2363       H  0.77679817  0.92766748  0.04563387     0.12000
H2364       H  0.77340603  0.93937063  0.08678435     0.10800
C2365       C  0.72278904  0.88300142  0.42079930    -0.03000
C2366       C  0.73205396  0.88909543  0.39294399    -0.08800
C2367       C  0.72948014  0.89597337  0.37124680    -0.16500
C2368       C  0.71762240  0.89692478  0.37695720     0.25700
C2369       C  0.70651311  0.88887857  0.40384019    -0.18100
C2370       C  0.70892069  0.88182675  0.42549745    -0.07000
C2371       C  0.71901303  0.90837736  0.35650066    -0.13500
C2372       C  0.72161995  0.91943783  0.34036250    -0.13200
C2373       C  0.72564299  0.93362939  0.32171144     0.25600
C2374       C  0.75204297  0.96204290  0.32000994    -0.18600
C2375       C  0.75600540  0.97580192  0.30208758    -0.07100
C2376       C  0.73359914  0.96146210  0.28554250    -0.03100
C2377       C  0.70713237  0.93294115  0.28747142    -0.08500
C2378       C  0.70322868  0.91919800  0.30531554    -0.16100
H2379       H  0.74318728  0.89060205  0.38882118     0.12000
H2380       H  0.73814044  0.90204317  0.35062824     0.11300
H2381       H  0.69728245  0.88947403  0.40872214     0.11300
H2382       H  0.70207050  0.87782321  0.44684700     0.11800
H2383       H  0.76965122  0.97360948  0.33249274     0.11900
H2384       H  0.77667362  0.99769367  0.30111782     0.11800
H2385       H  0.68941611  0.92112845  0.27488510     0.12000
H2386       H  0.68267348  0.89725150  0.30625638     0.10800
C2387       C  0.76577088  0.61376112  0.42901263    -0.03000
C2388       C  0.78420303  0.62017344  0.43002360    -0.08800
C2389       C  0.78461799  0.61237674  0.40588133    -0.16500
C2390       C  0.76658523  0.59798069  0.38036017     0.25700
C2391       C  0.74949378  0.59317953  0.37836915    -0.18100
C2392       C  0.74913408  0.60107783  0.40250470    -0.07000
C2393       C  0.76363803  0.58566803  0.35786464    -0.13500
C2394       C  0.76067376  0.57419904  0.34103006    -0.13200
C2395       C  0.75741109  0.56020980  0.32257502     0.25600
C2396       C  0.73173505  0.53410390  0.30784774    -0.18600
C2397       C  0.72866554  0.52053153  0.29028677    -0.07100
C2398       C  0.75127742  0.53289871  0.28717177    -0.03100
C2399       C  0.77690851  0.55901175  0.30229851    -0.08500
C2400       C  0.77990589  0.57249201  0.31986180    -0.16100
H2401       H  0.79650643  0.62891156  0.45030583     0.12000
H2402       H  0.79782574  0.61608558  0.40783059     0.11300
H2403       H  0.73539326  0.58202964  0.35879266     0.11300
H2404       H  0.73452870  0.59561274  0.40117700     0.11800
H2405       H  0.71410497  0.52427696  0.30983528     0.11900
H2406       H  0.70870095  0.00057530  0.27879433     0.11800
H2407       H  0.79477287  0.56920508  0.30033179     0.12000
H2408       H  0.79984800  0.59259216  0.33124706     0.10800
C2409       C  0.76995907  0.61591355  0.03239802    -0.03000
C2410       C  0.78997817  0.62439206  0.03235619    -0.08800
C2411       C  0.79237397  0.61751675  0.05442270    -0.16500
C2412       C  0.77491383  0.60219501  0.07694492     0.25700
C2413       C  0.75644663  0.59558351  0.07836093    -0.18100
C2414       C  0.75402608  0.60242585  0.55638995    -0.07000
C2415       C  0.77404514  0.59108155  0.09694477    -0.13500
C2416       C  0.77130935  0.57987267  0.11282959    -0.13200
C2417       C  0.76654727  0.56517219  0.13147413     0.25600
C2418       C  0.74067894  0.54031704  0.14139550    -0.18600
C2419       C  0.73601319  0.52616861  0.15969510    -0.07100
C2420       C  0.75721800  0.53670591  0.16860528    -0.03100
C2421       C  0.78307706  0.56155637  0.15830717    -0.08500
C2422       C  0.78764902  0.57558504  0.13983987    -0.16100
H2423       H  0.80222805  0.63431259  0.01405159     0.12000
H2424       H  0.80682073  0.62286542  0.05299013     0.11300
H2425       H  0.74286796  0.58385863  0.09565027     0.11300
H2426       H  0.73843723  0.59560729  0.55711210     0.11800
H2427       H  0.72410680  0.53192604  0.13513757     0.11900
H2428       H  0.71594565  0.00725141  0.16733158     0.11800
H2429       H  0.79984930  0.57024932  0.16464020     0.12000
H2430       H  0.80773554  0.59468817  0.13229015     0.10800
C2431       C  0.88833539  0.72734763  0.43268030    -0.03000
C2432       C  0.89858656  0.74020576  0.40642838    -0.08800
C2433       C  0.90449796  0.73667217  0.38496927    -0.16500
C2434       C  0.90026876  0.72019190  0.38925907     0.25700
C2435       C  0.88811182  0.70566155  0.41432746    -0.18100
C2436       C  0.88205992  0.70908991  0.43579762    -0.07000
C2437       C  0.91073920  0.72034447  0.36943787    -0.13500
C2438       C  0.92147040  0.72258064  0.35362071    -0.13200
C2439       C  0.93598762  0.72715953  0.33516028     0.25600
C2440       C  0.92425561  0.70535158  0.32461426    -0.18600
C2441       C  0.93837839  0.70999175  0.30663527    -0.07100
C2442       C  0.96462070  0.73660198  0.29892192    -0.03100
C2443       C  0.97631238  0.75838718  0.30986634    -0.08500
C2444       C  0.96214339  0.75369401  0.32770622    -0.16100
H2445       H  0.90395178  0.75463485  0.40354412     0.12000
H2446       H  0.91380923  0.74804132  0.36578190     0.11300
H2447       H  0.88467626  0.69283024  0.41809143     0.11300
H2448       H  0.87470440  0.69931417  0.45595912     0.11800
H2449       H  0.90410140  0.68469643  0.33014645     0.11900
H2450       H  0.92866121  0.69269726  0.29862745     0.11800
H2451       H  0.99633950  0.77910357  0.30432568     0.12000
H2452       H  0.97160681  0.77083871  0.33560038     0.10800
C2453       C  0.96871314  0.74290587  0.18006078    -0.03000
C2454       C  0.98228033  0.76597652  0.17323416    -0.08800
C2455       C  0.96882053  0.76279311  0.15467578    -0.16500
C2456       C  0.94158313  0.73653502  0.14271007     0.25700
C2457       C  0.92801437  0.71349524  0.14915074    -0.18100
C2458       C  0.94143935  0.71662569  0.16764855    -0.07000
C2459       C  0.92776812  0.73332594  0.12350145    -0.13500
C2460       C  0.91726280  0.73152676  0.10655480    -0.13200
C2461       C  0.90709069  0.73132776  0.08458062     0.25600
C2462       C  0.88768234  0.71038574  0.06120920    -0.18600
C2463       C  0.88177700  0.71290606  0.03702731    -0.07100
C2464       C  0.89543764  0.73656531  0.03581672    -0.03100
C2465       C  0.91300963  0.75626407  0.06057916    -0.08500
C2466       C  0.91887754  0.75371264  0.08470527    -0.16100
H2467       H  0.50322328  0.78647970  0.18241469     0.12000
H2468       H  0.97963426  0.78082799  0.14977837     0.11300
H2469       H  0.90699296  0.69307046  0.13997901     0.11300
H2470       H  0.93029877  0.69839845  0.17254383     0.11800
H2471       H  0.87834915  0.69291241  0.06082501     0.11900
H2472       H  0.86836184  0.69750292  0.01826834     0.11800
H2473       H  0.92367140  0.77459792  0.06042203     0.12000
H2474       H  0.93381844  0.77000799  0.10267221     0.10800
C2475       C  0.75746296  0.72882801  0.17814977    -0.03000
C2476       C  0.78423560  0.74965759  0.17175459    -0.08800
C2477       C  0.78888167  0.74384287  0.15255929    -0.16500
C2478       C  0.76694203  0.71708842  0.13914158     0.25700
C2479       C  0.74016664  0.69621710  0.14519852    -0.18100
C2480       C  0.73547071  0.70198770  0.16449957    -0.07000
C2481       C  0.77213240  0.71132530  0.11935331    -0.13500
C2482       C  0.77795852  0.70805528  0.10300409    -0.13200
C2483       C  0.78718446  0.70657466  0.08347429     0.25600
C2484       C  0.77526360  0.69455740  0.05418802    -0.18600
C2485       C  0.78693960  0.69692937  0.03425342    -0.07100
C2486       C  0.81091081  0.71155205  0.04316981    -0.03100
C2487       C  0.82152915  0.72179275  0.07308402    -0.08500
C2488       C  0.80980760  0.71932430  0.09297386    -0.16100
H2489       H  0.80174375  0.77052053  0.18183950     0.12000
H2490       H  0.80972593  0.76031072  0.14827393     0.11300
H2491       H  0.72286720  0.67539826  0.13510709     0.11300
H2492       H  0.71459798  0.68537095  0.16884146     0.11800
H2493       H  0.75781898  0.68463669  0.04629152     0.11900
H2494       H  0.77863882  0.68943699  0.01129932     0.11800
H2495       H  0.84027221  0.73365782  0.08052055     0.12000
H2496       H  0.81939091  0.72875632  0.11542042     0.10800
C2497       C  0.81910794  0.72192929  0.44587544    -0.03000
C2498       C  0.83552658  0.74195645  0.42580678    -0.08800
C2499       C  0.82400410  0.73931555  0.40322747    -0.16500
C2500       C  0.79576023  0.71648998  0.39992192     0.25700
C2501       C  0.77890808  0.69545170  0.41850093    -0.18100
C2502       C  0.79047726  0.69808601  0.44123976    -0.07000
C2503       C  0.78484611  0.71595010  0.37874687    -0.13500
C2504       C  0.77811355  0.71816716  0.36149952    -0.13200
C2505       C  0.77219128  0.72303902  0.34107709     0.25600
C2506       C  0.74508955  0.70177272  0.33042022    -0.18600
C2507       C  0.73963834  0.70664043  0.31045980    -0.07100
C2508       C  0.76120599  0.73292997  0.30077008    -0.03100
C2509       C  0.78833643  0.75421081  0.31181500    -0.08500
C2510       C  0.79373482  0.74928980  0.33171438    -0.16100
H2511       H  0.85760594  0.76050790  0.42859426     0.12000
H2512       H  0.83736668  0.75571123  0.38905747     0.11300
H2513       H  0.75699104  0.67756913  0.41623957     0.11300
H2514       H  0.77725874  0.68238806  0.45636138     0.11800
H2515       H  0.72813927  0.68135898  0.33740698     0.11900
H2516       H  0.71850477  0.68973311  0.30246837     0.11800
H2517       H  0.80547507  0.77466060  0.30485628     0.12000
H2518       H  0.81481384  0.76600975  0.33970402     0.10800
C2519       C  0.72153843  0.81905070  0.44378997    -0.03000
C2520       C  0.74013196  0.83576313  0.42218310    -0.08800
C2521       C  0.73879022  0.82551646  0.39955073    -0.16500
C2522       C  0.71879470  0.79827534  0.39787052     0.25700
C2523       C  0.69895067  0.78090029  0.41807249    -0.18100
C2524       C  0.70023301  0.79115833  0.44076948    -0.07000
C2525       C  0.72006852  0.78905865  0.37686134    -0.13500
C2526       C  0.72277126  0.78277199  0.35991689    -0.13100
C2527       C  0.72696991  0.77611647  0.33981594     0.25600
C2528       C  0.70504001  0.74875464  0.32904602    -0.18600
C2529       C  0.70902974  0.74241739  0.30938177    -0.07100
C2530       C  0.73510651  0.76331506  0.30000575    -0.03100
C2531       C  0.75709300  0.79073207  0.31117183    -0.08500
C2532       C  0.75305311  0.79702508  0.33080401    -0.16100
H2533       H  0.75693628  0.85738039  0.42402149     0.12000
H2534       H  0.75425133  0.83930273  0.38419971     0.11300
H2535       H  0.68325758  0.75975546  0.41718033     0.11300
H2536       H  0.68589456  0.77785096  0.45724648     0.11800
H2537       H  0.68473343  0.73224550  0.33571438     0.11900
H2538       H  0.69158602  0.72110356  0.30134579     0.11800
H2539       H  0.77744766  0.80742863  0.30452268     0.12000
H2540       H  0.77032656  0.81830132  0.33883437     0.10800
C2541       C  0.72984282  0.75830086  0.17762666    -0.03000
C2542       C  0.70250050  0.73725808  0.16837144    -0.08800
C2543       C  0.69665485  0.74209476  0.14944736    -0.16500
C2544       C  0.71797207  0.76802268  0.13925882     0.25700
C2545       C  0.74524002  0.78897406  0.14804260    -0.18100
C2546       C  0.75113490  0.78420963  0.16704609    -0.07000
C2547       C  0.71201706  0.77329021  0.12006962    -0.13500
C2548       C  0.70833634  0.77890579  0.10400771    -0.13200
C2549       C  0.70660130  0.78797308  0.08442830     0.25600
C2550       C  0.69270587  0.77463712  0.05592780    -0.18600
C2551       C  0.69536460  0.78641329  0.03529619    -0.07100
C2552       C  0.71221063  0.81187959  0.04276813    -0.03100
C2553       C  0.72405372  0.82381433  0.07214980    -0.08500
C2554       C  0.72130091  0.81199889  0.09274151    -0.16100
H2555       H  0.68554809  0.71710087  0.17611641     0.12000
H2556       H  0.67545738  0.72561825  0.14294701     0.11300
H2557       H  0.76202472  0.80914238  0.14038939     0.11300
H2558       H  0.77239869  0.80091645  0.17365386     0.11800
H2559       H  0.68122090  0.75604496  0.04904553     0.11900
H2560       H  0.68645053  0.77698104  0.01277386     0.11800
H2561       H  0.73750923  0.84363028  0.07843743     0.12000
H2562       H  0.73214866  0.82261450  0.11461968     0.10800
O2563       O  0.72871249  0.71556467  0.70740601    -0.74100
O2564       O  0.71865038  0.73176896  0.76703567    -0.74100
O2565       O  0.71625139  0.72937629  0.70724404    -0.74200
O2566       O  0.73080841  0.71774354  0.76727967    -0.74200
O2567       O  0.77536532  0.76209872  0.77052736    -0.74200
O2568       O  0.76080100  0.77370854  0.71015730    -0.74100
O2569       O  0.76317264  0.77611105  0.77000108    -0.74100
O2570       O  0.77325210  0.75991174  0.71076911    -0.74200
Ni2571     Ni  0.72205606  0.72206809  0.73710706     1.25400
Ni2572     Ni  0.76969888  0.76950083  0.74045303     1.25400
C2573       C  0.75282831  0.73503369  0.69964281     0.88100
C2574       C  0.73919259  0.75671731  0.77808988     0.88000
C2575       C  0.73597904  0.75354528  0.69918215     0.88000
C2576       C  0.75551746  0.73787885  0.77859416     0.88200
N2577       N  0.87763440  0.72482300  0.98319681    -0.03100
C2578       C  0.89176031  0.73882325  0.95919674    -0.00500
C2579       C  0.91787553  0.76665026  0.96802247    -0.23400
C2580       C  0.92083063  0.76959579  0.49815085    -0.23600
C2581       C  0.89632026  0.74355511  0.50698630    -0.00600
H2582       H  0.93463467  0.78237119  0.95442557     0.13100
H2583       H  0.94011207  0.78805684  0.51179327     0.13200
N2584       N  0.81953097  0.71026711  0.49335406    -0.03100
C2585       C  0.82911865  0.72340163  0.52073707    -0.00500
C2586       C  0.85211362  0.75124715  0.51881293    -0.23400
C2587       C  0.85389590  0.75471238  0.98956962    -0.23600
C2588       C  0.83243859  0.72898918  0.97444861    -0.00600
H2589       H  0.86240413  0.76618070  0.53631154     0.13100
H2590       H  0.86614483  0.77283224  0.98092089     0.13200
C2591       C  0.82154045  0.69860855  0.48894828     0.03500
C2592       C  0.84744711  0.71614667  0.48685559    -0.12700
C2593       C  0.85048835  0.70587863  0.98359778     0.01000
C2594       C  0.82713347  0.67743956  0.98225979    -0.11200
C2595       C  0.80105836  0.65939666  0.98430664     0.03500
C2596       C  0.79843988  0.67015354  0.98773895    -0.10600
H2597       H  0.86564260  0.73818474  0.48826596     0.09100
H2598       H  0.82938297  0.66950200  0.97996529     0.06600
H2599       H  0.77838529  0.65628209  0.98932787     0.06400
N2600       N  0.77690677  0.63002021  0.98207118    -0.03100
C2601       C  0.75923976  0.61397875  0.95701362    -0.00500
C2602       C  0.73245653  0.59020175  0.96406296    -0.23400
C2603       C  0.73367539  0.59081072  0.99418607    -0.23600
C2604       C  0.76119772  0.61496219  0.00482278    -0.00600
H2605       H  0.71409661  0.57231329  0.94903285     0.13100
H2606       H  0.71635640  0.57342555  0.00635202     0.13200
O2607       O  0.76238658  0.50069112  0.76041927    -0.74100
O2608       O  0.77339821  0.53523346  0.70246351    -0.74100
O2609       O  0.77032005  0.53301774  0.76130380    -0.74200
O2610       O  0.76550333  0.50311003  0.70156036    -0.74200
O2611       O  0.72033167  0.96567919  0.69356734    -0.74200
O2612       O  0.72510732  0.99548621  0.75374904    -0.74100
O2613       O  0.72824446  0.99792681  0.69498779    -0.74100
O2614       O  0.71718783  0.96306802  0.75240832    -0.74200
Ni2615     Ni  0.76947103  0.51931259  0.73176067     1.25400
Ni2616     Ni  0.72110894  0.97919858  0.72345319     1.25400
C2617       C  0.73793528  0.97584721  0.76535988     0.88100
C2618       C  0.75269419  0.52250223  0.68952506     0.88000
C2619       C  0.74867833  0.51964135  0.76672926     0.88000
C2620       C  0.74209930  0.97931091  0.68794794     0.88200
O2621       O  0.96714538  0.72124576  0.76578049    -0.74100
O2622       O  0.00336351  0.73454415  0.70847796    -0.74100
O2623       O  0.00069670  0.73084527  0.76737747    -0.74200
O2624       O  0.96950736  0.72465620  0.70691576    -0.74200
O2625       O  0.50604971  0.76966449  0.71456808    -0.74200
O2626       O  0.53735091  0.77588482  0.77521757    -0.74100
O2627       O  0.53985455  0.77951131  0.71625259    -0.74100
O2628       O  0.50374156  0.76626003  0.77339417    -0.74200
Ni2629     Ni  0.98391216  0.72625097  0.73684411     1.25400
Ni2630     Ni  0.52304538  0.77441377  0.74513147     1.25400
C2631       C  0.97927687  0.74159648  0.77859225     0.88100
C2632       C  0.52781231  0.75926818  0.70326955     0.88000
C2633       C  0.52433999  0.75439489  0.78097287     0.88000
C2634       C  0.98223624  0.74597776  0.70129978     0.88200
N2635       N  0.71098280  0.82000073  0.49201183    -0.03100
C2636       C  0.72908832  0.83242503  0.97259951    -0.00500
C2637       C  0.75475010  0.85325589  0.98728034    -0.23400
C2638       C  0.75193301  0.85174268  0.51664244    -0.23600
C2639       C  0.72452049  0.82970842  0.51913081    -0.00600
H2640       H  0.77226512  0.86484076  0.97807136     0.13100
H2641       H  0.76684359  0.86168326  0.53388767     0.13200
C2642       C  0.69866260  0.82135164  0.48846954     0.03500
C2643       C  0.71415421  0.84516638  0.97875421    -0.12700
C2644       C  0.70429536  0.84869268  0.97811793     0.01000
C2645       C  0.67821342  0.82779914  0.48700153    -0.11200
C2646       C  0.66213069  0.80380296  0.49671187     0.03500
C2647       C  0.67264354  0.80085955  0.49771742    -0.10600
H2648       H  0.73475831  0.86189325  0.97303155     0.09100
H2649       H  0.67043947  0.83021689  0.98627279     0.06600
H2650       H  0.66032375  0.78239628  0.50509383     0.06400
N2651       N  0.63372107  0.78078254  0.50107575    -0.03100
C2652       C  0.62248015  0.76806604  0.52636522    -0.00500
C2653       C  0.59773655  0.73976825  0.51897230    -0.23400
C2654       C  0.59242592  0.73518352  0.98881679    -0.23600
C2655       C  0.61430338  0.76070810  0.97852498    -0.00600
H2656       H  0.58247598  0.72401630  0.53370362     0.13100
H2657       H  0.57286065  0.71557082  0.97646190     0.13200
N2658       N  0.72246935  0.87503305  0.97233807    -0.03100
C2659       C  0.73450140  0.88611770  0.94666306    -0.00500
C2660       C  0.76278441  0.91211495  0.95306719    -0.23400
C2661       C  0.76800411  0.91862183  0.98288787    -0.23600
C2662       C  0.74284383  0.89604380  0.99395028    -0.00600
H2663       H  0.77751467  0.92702666  0.93747547     0.13100
H2664       H  0.78743207  0.93896980  0.99429382     0.13200
C2665       C  0.61086624  0.76497227  0.95116890    -0.03000
C2666       C  0.59774300  0.74817836  0.92480209    -0.08800
C2667       C  0.59006303  0.74899924  0.90077189    -0.16500
C2668       C  0.59532542  0.76651395  0.90297010     0.25700
C2669       C  0.60911815  0.78383937  0.92885960    -0.18100
C2670       C  0.61667151  0.78296168  0.95281052    -0.07000
C2671       C  0.58464538  0.76521960  0.87991289    -0.13500
C2672       C  0.57474969  0.76379717  0.86225295    -0.13200
C2673       C  0.56204642  0.76151391  0.84220913     0.25600
C2674       C  0.57609715  0.78495048  0.83645551    -0.18600
C2675       C  0.56370228  0.78264961  0.81696220    -0.07100
C2676       C  0.53702365  0.75682074  0.80294581    -0.03100
C2677       C  0.52296489  0.73335917  0.80919877    -0.08500
C2678       C  0.53538673  0.73571394  0.82868193    -0.16100
H2679       H  0.59255586  0.73375726  0.92322441     0.12000
H2680       H  0.57918008  0.73530715  0.88092280     0.11300
H2681       H  0.61294276  0.79716372  0.93103571     0.11300
H2682       H  0.62536436  0.79502076  0.97326471     0.11800
H2683       H  0.59668909  0.80502614  0.84691515     0.11900
H2684       H  0.57512713  0.80112162  0.81262299     0.11800
H2685       H  0.00246293  0.71319462  0.79881353     0.12000
H2686       H  0.52422702  0.71739999  0.83307695     0.10800
C2687       C  0.62415441  0.77834646  0.55243833    -0.03000
C2688       C  0.63080068  0.79690794  0.54918001    -0.08800
C2689       C  0.62365363  0.79958683  0.56965468    -0.16500
C2690       C  0.60994577  0.78396520  0.59391305     0.25700
C2691       C  0.60543431  0.76728925  0.59860628    -0.18100
C2692       C  0.61261583  0.76465197  0.57826049    -0.07000
C2693       C  0.59851567  0.78315263  0.61261136    -0.13500
C2694       C  0.58708631  0.78031406  0.62780977    -0.13200
C2695       C  0.57196965  0.77511174  0.64597039     0.25600
C2696       C  0.58382005  0.79676414  0.65803790    -0.18600
C2697       C  0.56936642  0.79161504  0.67617504    -0.07100
C2698       C  0.54266540  0.76464586  0.68262740    -0.03100
C2699       C  0.53079363  0.74300256  0.67005355    -0.08500
C2700       C  0.54528451  0.74819732  0.65198473    -0.16100
H2701       H  0.63952450  0.80772597  0.52963611     0.12000
H2702       H  0.62755084  0.81277343  0.56568567     0.11300
H2703       H  0.59508952  0.75520384  0.61728057     0.11300
H2704       H  0.60731505  0.75031539  0.58166531     0.11800
H2705       H  0.60436955  0.81770928  0.65366960     0.11900
H2706       H  0.57925225  0.80883674  0.68540105     0.11800
H2707       H  0.51038803  0.72201350  0.67450352     0.12000
H2708       H  0.53570067  0.73114996  0.64289637     0.10800
C2709       C  0.74016198  0.96715601  0.66613394    -0.03000
C2710       C  0.76400151  0.98221653  0.65921899    -0.08800
C2711       C  0.76214031  0.97025770  0.64000803    -0.16500
C2712       C  0.73646928  0.94308217  0.62745026     0.25700
C2713       C  0.71264546  0.92804545  0.63381243    -0.18100
C2714       C  0.71445249  0.93998263  0.65300661    -0.07000
C2715       C  0.73470867  0.93079837  0.60793767    -0.13500
C2716       C  0.73403045  0.92144588  0.59096693    -0.13200
C2717       C  0.73420535  0.91178536  0.56910561     0.25600
C2718       C  0.71295645  0.89197787  0.54614677    -0.18600
C2719       C  0.71491169  0.88541249  0.52259614    -0.07100
C2720       C  0.73806305  0.89840124  0.52177538    -0.03100
C2721       C  0.75864890  0.91721123  0.54572262    -0.08500
C2722       C  0.75675861  0.92391905  0.56919275    -0.16100
H2723       H  0.78409368  0.50315388  0.66888340     0.12000
H2724       H  0.78073558  0.98215916  0.63512151     0.11300
H2725       H  0.69266259  0.90703363  0.62411288     0.11300
H2726       H  0.69570492  0.92779890  0.65789282     0.11800
H2727       H  0.69552117  0.88262449  0.54568016     0.11900
H2728       H  0.69928513  0.87174789  0.00406861     0.11800
H2729       H  0.77677839  0.92764879  0.54564456     0.12000
H2730       H  0.77339390  0.93936071  0.58679297     0.10800
C2731       C  0.72281647  0.88302231  0.92078718    -0.03000
C2732       C  0.73208859  0.88912430  0.89293455    -0.08800
C2733       C  0.72951744  0.89600530  0.87123885    -0.16500
C2734       C  0.71765458  0.89695116  0.87694763     0.25700
C2735       C  0.70653797  0.88889665  0.90382708    -0.18100
C2736       C  0.70894329  0.88184224  0.92548301    -0.07000
C2737       C  0.71904569  0.90840494  0.85649328    -0.13500
C2738       C  0.72165024  0.91946430  0.84035739    -0.13200
C2739       C  0.72566636  0.93365114  0.82170840     0.25600
C2740       C  0.75206210  0.96206699  0.82001356    -0.18600
C2741       C  0.75601707  0.97582064  0.80209245    -0.07100
C2742       C  0.73360734  0.96147291  0.78554241    -0.03100
C2743       C  0.70714493  0.93294983  0.78746511    -0.08500
C2744       C  0.70324884  0.91921219  0.80530759    -0.16100
H2745       H  0.74322539  0.89063484  0.88881334     0.12000
H2746       H  0.73818330  0.90208133  0.85062282     0.11300
H2747       H  0.69730292  0.88948736  0.90870761     0.11300
H2748       H  0.70208706  0.87783215  0.94683039     0.11800
H2749       H  0.76967280  0.97363948  0.83250045     0.11900
H2750       H  0.77668221  0.99771448  0.80112761     0.11800
H2751       H  0.68942637  0.92113125  0.77487463     0.12000
H2752       H  0.68269673  0.89726368  0.80624327     0.10800
C2753       C  0.76578215  0.61378560  0.92901336    -0.03000
C2754       C  0.78421398  0.62019759  0.93001927    -0.08800
C2755       C  0.78461648  0.61238719  0.90588019    -0.16500
C2756       C  0.76657187  0.59797815  0.88036701     0.25700
C2757       C  0.74948146  0.59317826  0.87837908    -0.18100
C2758       C  0.74913427  0.60109036  0.90251135    -0.07000
C2759       C  0.76361362  0.58565323  0.85787777    -0.13500
C2760       C  0.76064387  0.57417741  0.84104956    -0.13200
C2761       C  0.75737898  0.56018418  0.82260165     0.25600
C2762       C  0.73170024  0.53407278  0.80788538    -0.18600
C2763       C  0.72863005  0.52049879  0.79032804    -0.07100
C2764       C  0.75124388  0.53286974  0.78720590    -0.03100
C2765       C  0.77687736  0.55898759  0.80232337    -0.08500
C2766       C  0.77987545  0.57246955  0.81988279    -0.16100
H2767       H  0.79652750  0.62894675  0.95029662     0.12000
H2768       H  0.79782430  0.61609610  0.90782665     0.11300
H2769       H  0.73537243  0.58201917  0.85880840     0.11300
H2770       H  0.73452998  0.59562660  0.90118686     0.11800
H2771       H  0.71406880  0.52424324  0.80987768     0.11900
H2772       H  0.70867928  0.00056022  0.77879870     0.11800
H2773       H  0.79474317  0.56918390  0.80035106     0.12000
H2774       H  0.79981967  0.59257395  0.83125969     0.10800
C2775       C  0.76992593  0.61587460  0.53240123    -0.03000
C2776       C  0.78995327  0.62436372  0.53237029    -0.08800
C2777       C  0.79235127  0.61749264  0.55444205    -0.16500
C2778       C  0.77488507  0.60216466  0.57695871     0.25700
C2779       C  0.75640931  0.59554273  0.57836419    -0.18100
C2780       C  0.75406566  0.60247095  0.05639194    -0.07000
C2781       C  0.77401874  0.59105473  0.59696287    -0.13500
C2782       C  0.77128311  0.57984708  0.61285095    -0.13200
C2783       C  0.76651959  0.56514670  0.63149900     0.25600
C2784       C  0.74065106  0.54029303  0.64142119    -0.18600
C2785       C  0.73598371  0.52614451  0.65972407    -0.07100
C2786       C  0.75718729  0.53668049  0.66863681    -0.03100
C2787       C  0.78304649  0.56152934  0.65833772    -0.08500
C2788       C  0.78761994  0.57555797  0.63986710    -0.16100
H2789       H  0.80220834  0.63428919  0.51406986     0.12000
H2790       H  0.80680455  0.62284926  0.55301761     0.11300
H2791       H  0.74282581  0.58381284  0.59564909     0.11300
H2792       H  0.73848341  0.59566081  0.05712262     0.11800
H2793       H  0.72407984  0.53190315  0.63516119     0.11900
H2794       H  0.71589892  0.00721003  0.66732372     0.11800
H2795       H  0.79981764  0.57022095  0.66467227     0.12000
H2796       H  0.80770657  0.59465983  0.63231658     0.10800
C2797       C  0.88837646  0.72739532  0.93269187    -0.03000
C2798       C  0.89863745  0.74026198  0.90644501    -0.08800
C2799       C  0.90454420  0.73672447  0.88498340    -0.16500
C2800       C  0.90030087  0.72023211  0.88926589     0.25700
C2801       C  0.88813618  0.70569547  0.91432979    -0.18100
C2802       C  0.88208872  0.70912755  0.93580222    -0.07000
C2803       C  0.91076409  0.72037746  0.86944187    -0.13500
C2804       C  0.92149000  0.72260773  0.85362326    -0.13200
C2805       C  0.93600326  0.72718176  0.83516248     0.25600
C2806       C  0.92426423  0.70536965  0.82461117    -0.18600
C2807       C  0.93838421  0.71000602  0.80663243    -0.07100
C2808       C  0.96463038  0.73661636  0.79892455    -0.03100
C2809       C  0.97632880  0.75840545  0.80987432    -0.08500
C2810       C  0.96216280  0.75371617  0.82771405    -0.16100
H2811       H  0.90401234  0.75469890  0.90356632     0.12000
H2812       H  0.91386205  0.74809894  0.86579973     0.11300
H2813       H  0.88469021  0.69285526  0.91808829     0.11300
H2814       H  0.87472573  0.69934523  0.95596000     0.11800
H2815       H  0.90410693  0.68471444  0.83013907     0.11900
H2816       H  0.92866172  0.69270855  0.79862017     0.11800
H2817       H  0.99635915  0.77912213  0.80433823     0.12000
H2818       H  0.97163163  0.77086401  0.83561258     0.10800
C2819       C  0.96870603  0.74290276  0.68006683    -0.03000
C2820       C  0.98228605  0.76597669  0.67320718    -0.08800
C2821       C  0.96882598  0.76279343  0.65464997    -0.16500
C2822       C  0.94157517  0.73653223  0.64271944     0.25700
C2823       C  0.92799228  0.71348848  0.64919574    -0.18100
C2824       C  0.94141780  0.71661882  0.66769155    -0.07000
C2825       C  0.92776105  0.73332349  0.62350845    -0.13500
C2826       C  0.91725593  0.73152321  0.60655806    -0.13200
C2827       C  0.90708221  0.73132042  0.58457864     0.25600
C2828       C  0.88766797  0.71037146  0.56121418    -0.18600
C2829       C  0.88175807  0.71288517  0.53702816    -0.07100
C2830       C  0.89541959  0.73654444  0.53580644    -0.03100
C2831       C  0.91299868  0.75625128  0.56056190    -0.08500
C2832       C  0.91887145  0.75370665  0.58469187    -0.16100
H2833       H  0.50317338  0.78643266  0.68241772     0.12000
H2834       H  0.97965057  0.78083122  0.64972507     0.11300
H2835       H  0.90696000  0.69306101  0.64005231     0.11300
H2836       H  0.93026677  0.69838912  0.67261460     0.11800
H2837       H  0.87833281  0.69289698  0.56083881     0.11900
H2838       H  0.86833740  0.69747576  0.51827491     0.11800
H2839       H  0.92366118  0.77458528  0.56039667     0.12000
H2840       H  0.93381693  0.77000744  0.60265315     0.10800
C2841       C  0.75744006  0.72880515  0.67813764    -0.03000
C2842       C  0.78421027  0.74963005  0.67173914    -0.08800
C2843       C  0.78885017  0.74380905  0.65254379    -0.16500
C2844       C  0.76690666  0.71705274  0.63912891     0.25700
C2845       C  0.74013335  0.69618568  0.64518919    -0.18100
C2846       C  0.73544359  0.70196266  0.66449055    -0.07000
C2847       C  0.77209193  0.71128438  0.61934017    -0.13500
C2848       C  0.77791814  0.70801411  0.60299168    -0.13200
C2849       C  0.78714800  0.70653645  0.58346539     0.25600
C2850       C  0.77522389  0.69451128  0.55418133    -0.18600
C2851       C  0.78690207  0.69688421  0.53425000    -0.07100
C2852       C  0.81087852  0.71151537  0.54316762    -0.03100
C2853       C  0.82150088  0.72176494  0.57308020    -0.08500
C2854       C  0.80977773  0.71929620  0.59296632    -0.16100
H2855       H  0.80172155  0.77049445  0.68182168     0.12000
H2856       H  0.80969291  0.76027367  0.64825599     0.11300
H2857       H  0.72283091  0.67536546  0.63510017     0.11300
H2858       H  0.71457241  0.68534922  0.66883509     0.11800
H2859       H  0.75777408  0.68458267  0.54628361     0.11900
H2860       H  0.77859751  0.68938432  0.51129707     0.11800
H2861       H  0.84024761  0.73363624  0.58051781     0.12000
H2862       H  0.81936398  0.72873478  0.61541100     0.10800
C2863       C  0.81913647  0.72196366  0.94587682    -0.03000
C2864       C  0.83555180  0.74198589  0.92580250    -0.08800
C2865       C  0.82402632  0.73934190  0.90322387    -0.16500
C2866       C  0.79578305  0.71651861  0.89992615     0.25700
C2867       C  0.77893399  0.69548498  0.91851116    -0.18100
C2868       C  0.79050597  0.69812192  0.94124835    -0.07000
C2869       C  0.78486621  0.71597631  0.87875322    -0.13500
C2870       C  0.77812984  0.71818956  0.86150656    -0.13200
C2871       C  0.77220320  0.72305636  0.84108253     0.25600
C2872       C  0.74510100  0.70178282  0.83041294    -0.18600
C2873       C  0.73964611  0.70664520  0.81044775    -0.07100
C2874       C  0.76121062  0.73293631  0.80076552    -0.03100
C2875       C  0.78834131  0.75422437  0.81182391    -0.08500
C2876       C  0.79374330  0.74930886  0.83172852    -0.16100
H2877       H  0.85763108  0.76053641  0.92858580     0.12000
H2878       H  0.83738635  0.75573394  0.88904891     0.11300
H2879       H  0.75701758  0.67760445  0.91625583     0.11300
H2880       H  0.77729026  0.68242805  0.95637485     0.11800
H2881       H  0.72815340  0.68136753  0.83739294     0.11900
H2882       H  0.71851248  0.68973252  0.80244605     0.11800
H2883       H  0.80547760  0.77467595  0.80487215     0.12000
H2884       H  0.81482262  0.76603434  0.83972839     0.10800
C2885       C  0.72155624  0.81906418  0.94379012    -0.03000
C2886       C  0.74013918  0.83577376  0.92217322    -0.08800
C2887       C  0.73880074  0.82553044  0.89954001    -0.16500
C2888       C  0.71882018  0.79829629  0.89787064     0.25700
C2889       C  0.69898623  0.78092311  0.91808406    -0.18100
C2890       C  0.70026463  0.79117737  0.94078096    -0.07000
C2891       C  0.72009984  0.78908560  0.87686094    -0.13500
C2892       C  0.72280376  0.78280026  0.85991644    -0.13100
C2893       C  0.72699835  0.77614094  0.83981517     0.25600
C2894       C  0.70506271  0.74877884  0.82903734    -0.18600
C2895       C  0.70904723  0.74243693  0.80937188    -0.07100
C2896       C  0.73512433  0.76333016  0.80000195    -0.03100
C2897       C  0.75711691  0.79074752  0.81117645    -0.08500
C2898       C  0.75308229  0.79704523  0.83081048    -0.16100
H2899       H  0.75693382  0.85738733  0.92400430     0.12000
H2900       H  0.75425395  0.83931502  0.88418004     0.11300
H2901       H  0.68330516  0.75978385  0.91720061     0.11300
H2902       H  0.68593574  0.77787324  0.95726678     0.11800
H2903       H  0.68475552  0.73227307  0.83570032     0.11900
H2904       H  0.69159895  0.72112296  0.80132938     0.11800
H2905       H  0.77747223  0.80744064  0.80453259     0.12000
H2906       H  0.77036021  0.81832163  0.83884756     0.10800
C2907       C  0.72983585  0.75829538  0.67762215    -0.03000
C2908       C  0.70249302  0.73725178  0.66836852    -0.08800
C2909       C  0.69664584  0.74208757  0.64944642    -0.16500
C2910       C  0.71796195  0.76801543  0.63925858     0.25700
C2911       C  0.74523045  0.78896796  0.64804150    -0.18100
C2912       C  0.75112692  0.78420441  0.66704288    -0.07000
C2913       C  0.71200486  0.77328106  0.62007008    -0.13500
C2914       C  0.70832086  0.77889337  0.60400771    -0.13200
C2915       C  0.70658032  0.78795499  0.58442623     0.25600
C2916       C  0.69269563  0.77462445  0.55592135    -0.18600
C2917       C  0.69535092  0.78639750  0.53528904    -0.07100
C2918       C  0.71218283  0.81185536  0.54276479    -0.03100
C2919       C  0.72401484  0.82378389  0.57214958    -0.08500
C2920       C  0.72126508  0.81197121  0.59274222    -0.16100
H2921       H  0.68554146  0.71709454  0.67611276     0.12000
H2922       H  0.67544798  0.72561024  0.64294673     0.11300
H2923       H  0.76201436  0.80913639  0.64038887     0.11300
H2924       H  0.77239107  0.80091201  0.67364998     0.11800
H2925       H  0.68122260  0.75604000  0.54903684     0.11900
H2926       H  0.68644684  0.77697127  0.51276402     0.11800
H2927       H  0.73746021  0.84359399  0.57843978     0.12000
H2928       H  0.73210455  0.82258258  0.61462377     0.10800
loop_ 
_geom_bond_atom_site_label_1 
_geom_bond_atom_site_label_2 
_geom_bond_distance 
_geom_bond_site_symmetry_2 
_ccdc_geom_bond_type 
O1           Ni9   1.942       .  S
O1           C11   1.286       .  A
O2           Ni9   1.939       .  S
O2           C12   1.286       .  A
O3           Ni9   1.929       .  S
O3           C13   1.283       .  A
O4           Ni9   1.928       .  S
O4           C14   1.283       .  A
O5          Ni10   1.933       .  S
O5           C14   1.285       .  A
O6          Ni10   1.934       .  S
O6           C13   1.285       .  A
O7          Ni10   1.934       .  S
O7           C12   1.285       .  A
O8          Ni10   1.934       .  S
O8           C11   1.285       .  A
Ni9         Ni10   2.380       .  S
C11         C279   1.505       .  S
C12         C334   1.503       .  S
C13         C345   1.498       .  S
C14         C312   1.497       .  S
N15          C16   1.364       .  A
N15         C385   1.361       .  A
N15          C31   1.448       .  S
C16         C235   1.493       .  S
C16          C17   1.385       .  A
C17         C384   1.367       .  A
C17          H20   1.083       .  S
C18          C19   1.382   1_556  A
C18         C383   1.367       .  A
C18          H21   1.082   1_556  S
C19         C268   1.488       .  S
C19         N381   1.361   1_554  A
N22          C23   1.371   1_556  A
N22         C392   1.368       .  A
N22          C29   1.463       .  S
C23         C290   1.498       .  S
C23          C24   1.384       .  A
C24         C391   1.363   1_554  A
C24          H27   1.083       .  S
C25          C26   1.382       .  A
C25         C390   1.363       .  A
C25          H28   1.082       .  S
C26         C301   1.496       .  S
C26         N388   1.368       .  A
C29          C30   1.416       .  A
C29         C400   1.408       .  A
C30         C397   1.413       .  A
C30          H35   1.083       .  S
C31          C32   1.400       .  A
C31         C396   1.413       .  A
C32          C33   1.407       .  A
C32          H36   1.081       .  S
C33          N38   1.444       .  S
C33          C34   1.423       .  A
C34         C395   1.408       .  A
C34          H37   1.083       .  S
N38          C42   1.360       .  A
N38          C39   1.359       .  A
C39         C191   1.488       .  S
C39          C40   1.382       .  A
C40          C41   1.370       .  A
C40          H43   1.082       .  S
C41          C42   1.385       .  A
C41          H44   1.082       .  S
C42         C579   1.493       .  S
O45         Ni53   1.931       .  S
O45         C787   1.284   1_545  A
O46         Ni53   1.928       .  S
O46          C56   1.283       .  A
O47         Ni53   1.920       .  S
O47          C57   1.282       .  A
O48         Ni53   1.917       .  S
O48         C790   1.282   1_545  A
O49         Ni54   1.922       .  S
O49          C58   1.282       .  A
O50         Ni54   1.924       .  S
O50         C789   1.283       .  A
O51         Ni54   1.930       .  S
O51         C788   1.284       .  A
O52         Ni54   1.933       .  S
O52          C55   1.285       .  A
Ni53       Ni786   2.383   1_545  S
Ni54       Ni785   2.383       .  S
C55         O777   1.284       .  A
C55         C180   1.498       .  S
C56         O783   1.284   1_545  A
C56         C224   1.493       .  S
C57         O782   1.283   1_545  A
C57         C202   1.488       .  S
C58         O780   1.282       .  A
C58         C147   1.484       .  S
O59         Ni67   1.936       .  S
O59          C69   1.285       .  A
O60         Ni67   1.937       .  S
O60        C1534   1.286       .  A
O61         Ni67   1.918       .  S
O61        C1535   1.281       .  A
O62         Ni67   1.919       .  S
O62          C72   1.282       .  A
O63         Ni68   1.924       .  S
O63        C1536   1.283   1_455  A
O64         Ni68   1.925       .  S
O64          C71   1.283       .  A
O65         Ni68   1.932       .  S
O65          C70   1.284       .  A
O66         Ni68   1.930       .  S
O66        C1533   1.284   1_455  A
Ni67      Ni1532   2.382       .  S
Ni68      Ni1531   2.382   1_455  S
C69        O1530   1.284       .  A
C69         C246   1.499       .  S
C70        O1524   1.286       .  A
C70         C136   1.501       .  S
C71        O1525   1.281       .  A
C71         C114   1.486       .  S
C72        O1527   1.283       .  A
C72         C257   1.487       .  S
N73          C77   1.369   1_556  A
N73         C440   1.372       .  A
N73          C80   1.464       .  S
C74         C323   1.497       .  S
C74         N439   1.372       .  A
C74          C75   1.381       .  A
C75         C442   1.362       .  A
C75          H78   1.083       .  S
C76          C77   1.384       .  A
C76         C441   1.362   1_554  A
C76          H79   1.083       .  S
C77         C356   1.493       .  S
C80          C85   1.413       .  A
C80         C447   1.417       .  A
C81          C82   1.412       .  A
C81         C446   1.417       .  A
C81          H86   1.083       .  S
C82          N96   1.450       .  S
C82         C449   1.401       .  A
C83          C84   1.406       .  A
C83         C448   1.401       .  A
C83         H453   1.077       .  S
C84          N89   1.447   1_556  S
C84          C85   1.423       .  A
C85          H88   1.083   1_556  S
H87         C449   1.077       .  S
N89          C90   1.363       .  A
N89         C459   1.355   1_554  A
C90         C125   1.503       .  S
C90          C91   1.391       .  A
C91         C458   1.372   1_554  A
C91          H94   1.082       .  S
C92          C93   1.377       .  A
C92         C457   1.372       .  A
C92          H95   1.082       .  S
C93         C103   1.481       .  S
C93         N455   1.355       .  A
N96         C100   1.358       .  A
N96          C97   1.365       .  A
C97         C169   1.494       .  S
C97          C98   1.387       .  A
C98          C99   1.368       .  A
C98         H101   1.083       .  S
C99         C100   1.379       .  A
C99         H102   1.082       .  S
C100        C524   1.485       .  S
C103        C104   1.405       .  A
C103        C108   1.406       .  A
C104        C105   1.403       .  A
C104        H117   1.083       .  S
C105        C106   1.403       .  A
C105        H118   1.083       .  S
C106        C107   1.398       .  A
C106        C109   1.443       .  S
C107        C108   1.395       .  A
C107        H119   1.084       .  S
C108        H120   1.081       .  S
C109        C110   1.208       .  T
C110        C111   1.443       .  S
C111        C112   1.401       .  A
C111        C116   1.399       .  A
C112        C113   1.401       .  A
C112        H121   1.083       .  S
C113        C114   1.408       .  A
C113        H122   1.083       .  S
C114        C115   1.408       .  A
C115        C116   1.399       .  A
C115       H1587   1.083       .  S
C116        H124   1.084       .  S
H123       C1579   1.083       .  S
C125        C126   1.411       .  A
C125        C130   1.411       .  A
C126        C127   1.409       .  A
C126        H139   1.082       .  S
C127        C128   1.405       .  A
C127        H140   1.083       .  S
C128        C129   1.402       .  A
C128        C131   1.461       .  S
C129        C130   1.404       .  A
C129        H141   1.083       .  S
C130        H142   1.083       .  S
C131        C132   1.219       .  T
C132        C133   1.461       .  S
C133        C134   1.404       .  A
C133        C138   1.404       .  A
C134        C135   1.408       .  A
C134        H143   1.083       .  S
C135        C136   1.411       .  A
C135        H144   1.083       .  S
C136        C137   1.410       .  A
C137        C138   1.406       .  A
C137        H145   1.083       .  S
C138        H146   1.083       .  S
C147        C148   1.408       .  A
C147        C152   1.408       .  A
C148        C149   1.399       .  A
C148        H893   1.083       .  S
C149        C150   1.399       .  A
C149        H162   1.084       .  S
C150        C151   1.400       .  A
C150        C153   1.442       .  S
C151        C152   1.400       .  A
C151        H163   1.083       .  S
C152        H164   1.083       .  S
C153        C154   1.207       .  T
C154        C155   1.442       .  S
C155        C156   1.399       .  A
C155        C160   1.401       .  A
C156        C157   1.398       .  A
C156        H165   1.083       .  S
C157        C158   1.407       .  A
C157        H532   1.080       .  S
C158        C466   1.485   1_554  S
C158        C159   1.407       .  A
C159        C160   1.400       .  A
C159        H167   1.083       .  S
C160        H168   1.083       .  S
H161        C880   1.083   1_545  S
H166        C523   1.080       .  S
C169        C170   1.409       .  A
C169        C174   1.409       .  A
C170        C171   1.405       .  A
C170        H183   1.083       .  S
C171        C172   1.403       .  A
C171        H184   1.083       .  S
C172        C173   1.404       .  A
C172        C175   1.459       .  S
C173        C174   1.406       .  A
C173        H185   1.083       .  S
C174        H186   1.083       .  S
C175        C176   1.218       .  T
C176        C177   1.459       .  S
C177        C178   1.404       .  A
C177        C182   1.403       .  A
C178        C179   1.406       .  A
C178        H187   1.083       .  S
C179        C180   1.410       .  A
C179        H188   1.083       .  S
C180        C181   1.410       .  A
C181        C182   1.406       .  A
C181        H189   1.083       .  S
C182        H190   1.083       .  S
C191        C192   1.407       .  A
C191        C196   1.408       .  A
C192        C193   1.400       .  A
C192        H205   1.081       .  S
C193        C194   1.400       .  A
C193        H206   1.084       .  S
C194        C195   1.401       .  A
C194        C197   1.447       .  S
C195        C196   1.403       .  A
C195        H207   1.083       .  S
C196        H208   1.083       .  S
C197        C198   1.210       .  T
C198        C199   1.447       .  S
C199        C200   1.402       .  A
C199        C204   1.400       .  A
C200        C201   1.403       .  A
C200        H209   1.083       .  S
C201        C202   1.409       .  A
C201        H942   1.083       .  S
C202        C203   1.408       .  A
C203        C204   1.400       .  A
C203        H211   1.083       .  S
C204        H212   1.083       .  S
H210        C933   1.083       .  S
C213        C408   1.493       .  S
C213        C214   1.409       .  A
C213        C584   1.409       .  A
C214        C215   1.405       .  A
C214        H227   1.082       .  S
C215        C216   1.403       .  A
C215        H228   1.083       .  S
C216        C217   1.401       .  A
C216        C219   1.453       .  S
C217        C584   1.402       .  A
C217        H229   1.083       .  S
C218        C579   1.409       .  A
C218        C583   1.402       .  A
C218        H230   1.083       .  S
C219        C220   1.214       .  T
C220        C221   1.454       .  S
C221        C222   1.402       .  A
C221        C226   1.402       .  A
C222        C223   1.404       .  A
C222        H231   1.083       .  S
C223        C224   1.409       .  A
C223        H964   1.083       .  S
C224        C225   1.409       .  A
C225        C226   1.404       .  A
C225        H233   1.083       .  S
C226        H234   1.083       .  S
H232        C955   1.083       .  S
C235        C236   1.409       .  A
C235        C240   1.408       .  A
C236        C237   1.404       .  A
C236        H249   1.083       .  S
C237        C238   1.402       .  A
C237        H250   1.083       .  S
C238        C239   1.405       .  A
C238        C241   1.459       .  S
C239        C240   1.407       .  A
C239        H251   1.083       .  S
C240        H252   1.083       .  S
C241        C242   1.218       .  T
C242        C243   1.459       .  S
C243        C244   1.404       .  A
C243        C248   1.402       .  A
C244        C245   1.408       .  A
C244        H253   1.083       .  S
C245        C246   1.410       .  A
C245        H254   1.083       .  S
C246        C247   1.410       .  A
C247        C248   1.405       .  A
C247        H255   1.083       .  S
C248        H256   1.083       .  S
C257        C258   1.408       .  A
C257        C262   1.409       .  A
C258        C259   1.402       .  A
C258       H1735   1.083       .  S
C259        C260   1.402       .  A
C259        H272   1.083       .  S
C260        C261   1.400       .  A
C260        C263   1.447       .  S
C261        C262   1.401       .  A
C261        H273   1.083       .  S
C262        H274   1.083       .  S
C263        C264   1.210       .  T
C264        C265   1.447       .  S
C265        C266   1.402       .  A
C265        C270   1.400       .  A
C266        C267   1.402       .  A
C266        H275   1.083       .  S
C267        C268   1.407       .  A
C267        H276   1.082       .  S
C268        C269   1.408       .  A
C269        C270   1.400       .  A
C269        H277   1.083       .  S
C270        H278   1.084       .  S
H271       C1722   1.083   1_455  S
C279        C280   1.411       .  A
C279        C284   1.411       .  A
C280        C281   1.407       .  A
C280        H293   1.083       .  S
C281        C282   1.404       .  A
C281        H294   1.083       .  S
C282        C283   1.405       .  A
C282        C285   1.465       .  S
C283        C284   1.411       .  A
C283        H295   1.083       .  S
C284        H296   1.083       .  S
C285        C286   1.221       .  T
C286        C287   1.465       .  S
C287        C288   1.406       .  A
C287        C292   1.403       .  A
C288        C289   1.410       .  A
C288        H297   1.083       .  S
C289        C290   1.409       .  A
C289        H298   1.083       .  S
C290        C291   1.409       .  A
C291        C292   1.406       .  A
C291        H299   1.083       .  S
C292        H300   1.083       .  S
C301        C302   1.410       .  A
C301        C306   1.409       .  A
C302        C303   1.401       .  A
C302        H315   1.083       .  S
C303        C304   1.400       .  A
C303        H316   1.084       .  S
C304        C305   1.406       .  A
C304        C307   1.457       .  S
C305        C306   1.410       .  A
C305        H317   1.083       .  S
C306        H318   1.083       .  S
C307        C308   1.216       .  T
C308        C309   1.457       .  S
C309        C310   1.403       .  A
C309        C314   1.403       .  A
C310        C311   1.406       .  A
C310        H319   1.083       .  S
C311        C312   1.411       .  A
C311        H320   1.083       .  S
C312        C313   1.409       .  A
C313        C314   1.405       .  A
C313        H321   1.083       .  S
C314        H322   1.083       .  S
C323        C324   1.410       .  A
C323        C328   1.408       .  A
C324        C325   1.404       .  A
C324        H337   1.083       .  S
C325        C326   1.402       .  A
C325        H338   1.083       .  S
C326        C327   1.407       .  A
C326        C329   1.463       .  S
C327        C328   1.411       .  A
C327        H339   1.083       .  S
C328        H340   1.082       .  S
C329        C330   1.220       .  T
C330        C331   1.464       .  S
C331        C332   1.404       .  A
C331        C336   1.404       .  A
C332        C333   1.408       .  A
C332        H341   1.083       .  S
C333        C334   1.411       .  A
C333        H342   1.083       .  S
C334        C335   1.411       .  A
C335        C336   1.408       .  A
C335        H343   1.083       .  S
C336        H344   1.083       .  S
C345        C346   1.411       .  A
C345        C350   1.409       .  A
C346        C347   1.406       .  A
C346        H359   1.083       .  S
C347        C348   1.402       .  A
C347        H360   1.083       .  S
C348        C349   1.404       .  A
C348        C351   1.458       .  S
C349        C350   1.406       .  A
C349        H361   1.083       .  S
C350        H362   1.083       .  S
C351        C352   1.217       .  T
C352        C353   1.458       .  S
C353        C354   1.405       .  A
C353        C358   1.402       .  A
C354        C355   1.408       .  A
C354        H363   1.083       .  S
C355        C356   1.408       .  A
C355        H364   1.082       .  S
C356        C357   1.409       .  A
C357        C358   1.404       .  A
C357        H365   1.083       .  S
C358        H366   1.083       .  S
O367       Ni375   1.942       .  S
O367        C377   1.286       .  A
O368       Ni375   1.939       .  S
O368        C378   1.286       .  A
O369       Ni375   1.929       .  S
O369        C379   1.283       .  A
O370       Ni375   1.928       .  S
O370        C380   1.283       .  A
O371       Ni376   1.933       .  S
O371        C380   1.285       .  A
O372       Ni376   1.934       .  S
O372        C379   1.285       .  A
O373       Ni376   1.934       .  S
O373        C378   1.285       .  A
O374       Ni376   1.934       .  S
O374        C377   1.285       .  A
Ni375      Ni376   2.380       .  S
C377        C645   1.505       .  S
C378        C700   1.503       .  S
C379        C711   1.498       .  S
C380        C678   1.497       .  S
N381        C382   1.364       .  A
N381        C397   1.448       .  S
C382        C601   1.493       .  S
C382        C383   1.385       .  A
C383        H386   1.083       .  S
C384        C385   1.382       .  A
C384        H387   1.082       .  S
C385        C634   1.488       .  S
N388        C389   1.371       .  A
N388        C395   1.463       .  S
C389        C656   1.498       .  S
C389        C390   1.384       .  A
C390        H393   1.083       .  S
C391        C392   1.382       .  A
C391        H394   1.082       .  S
C392        C667   1.496       .  S
C395        C396   1.416       .  A
C396        H401   1.083       .  S
C397        C398   1.400       .  A
C398        C399   1.407       .  A
C398        H402   1.081       .  S
C399        N404   1.444       .  S
C399        C400   1.423       .  A
C400        H403   1.083       .  S
N404        C408   1.360   1_556  A
N404        C405   1.359       .  A
C405        C557   1.488       .  S
C405        C406   1.382       .  A
C406        C407   1.370       .  A
C406        H409   1.082       .  S
C407        C408   1.385   1_556  A
C407        H410   1.082   1_556  S
O411       Ni419   1.931       .  S
O411       C1153   1.284   1_545  A
O412       Ni419   1.928       .  S
O412        C422   1.283       .  A
O413       Ni419   1.920       .  S
O413        C423   1.282       .  A
O414       Ni419   1.917       .  S
O414       C1156   1.282   1_545  A
O415       Ni420   1.922       .  S
O415        C424   1.282       .  A
O416       Ni420   1.924       .  S
O416       C1155   1.283       .  A
O417       Ni420   1.930       .  S
O417       C1154   1.284       .  A
O418       Ni420   1.933       .  S
O418        C421   1.285       .  A
Ni419     Ni1152   2.383   1_545  S
Ni420     Ni1151   2.383       .  S
C421       O1143   1.284       .  A
C421        C546   1.498       .  S
C422       O1149   1.284   1_545  A
C422        C590   1.493       .  S
C423       O1148   1.283   1_545  A
C423        C568   1.488       .  S
C424       O1146   1.282       .  A
C424        C513   1.484       .  S
O425       Ni433   1.936       .  S
O425        C435   1.285       .  A
O426       Ni433   1.937       .  S
O426       C1900   1.286       .  A
O427       Ni433   1.917       .  S
O427       C1901   1.281       .  A
O428       Ni433   1.919       .  S
O428        C438   1.282       .  A
O429       Ni434   1.924       .  S
O429       C1902   1.283   1_455  A
O430       Ni434   1.925       .  S
O430        C437   1.283       .  A
O431       Ni434   1.932       .  S
O431        C436   1.284       .  A
O432       Ni434   1.930       .  S
O432       C1899   1.284   1_455  A
Ni433     Ni1898   2.382       .  S
Ni434     Ni1897   2.382   1_455  S
C435       O1896   1.284       .  A
C435        C612   1.499       .  S
C436       O1890   1.286       .  A
C436        C502   1.501       .  S
C437       O1891   1.281       .  A
C437        C480   1.486       .  S
C438       O1893   1.283       .  A
C438        C623   1.487       .  S
N439        C443   1.369       .  A
N439        C446   1.464       .  S
C440        C689   1.497       .  S
C440        C441   1.381       .  A
C441        H444   1.083       .  S
C442        C443   1.384       .  A
C442        H445   1.083       .  S
C443        C722   1.493       .  S
C446        C451   1.413       .  A
C447        C448   1.412       .  A
C447        H452   1.083       .  S
C448        N462   1.450       .  S
C449        C450   1.406       .  A
C450        N455   1.447       .  S
C450        C451   1.423       .  A
C451        H454   1.083       .  S
N455        C456   1.363       .  A
C456        C491   1.503       .  S
C456        C457   1.391       .  A
C457        H460   1.082       .  S
C458        C459   1.377       .  A
C458        H461   1.082       .  S
C459        C469   1.482       .  S
N462        C466   1.358       .  A
N462        C463   1.365       .  A
C463        C535   1.494       .  S
C463        C464   1.387       .  A
C464        C465   1.368       .  A
C464        H467   1.083       .  S
C465        C466   1.379       .  A
C465        H468   1.082       .  S
C469        C470   1.405       .  A
C469        C474   1.406       .  A
C470        C471   1.403       .  A
C470        H483   1.083       .  S
C471        C472   1.403       .  A
C471        H484   1.083       .  S
C472        C473   1.398       .  A
C472        C475   1.443       .  S
C473        C474   1.395       .  A
C473        H485   1.084       .  S
C474        H486   1.081       .  S
C475        C476   1.208       .  T
C476        C477   1.443       .  S
C477        C478   1.401       .  A
C477        C482   1.399       .  A
C478        C479   1.401       .  A
C478        H487   1.083       .  S
C479        C480   1.408       .  A
C479        H488   1.083       .  S
C480        C481   1.408       .  A
C481        C482   1.399       .  A
C481       H1953   1.083       .  S
C482        H490   1.084       .  S
H489       C1945   1.083       .  S
C491        C492   1.411       .  A
C491        C496   1.411       .  A
C492        C493   1.409       .  A
C492        H505   1.082       .  S
C493        C494   1.405       .  A
C493        H506   1.083       .  S
C494        C495   1.402       .  A
C494        C497   1.461       .  S
C495        C496   1.404       .  A
C495        H507   1.083       .  S
C496        H508   1.083       .  S
C497        C498   1.219       .  T
C498        C499   1.461       .  S
C499        C500   1.404       .  A
C499        C504   1.404       .  A
C500        C501   1.408       .  A
C500        H509   1.083       .  S
C501        C502   1.411       .  A
C501        H510   1.083       .  S
C502        C503   1.410       .  A
C503        C504   1.406       .  A
C503        H511   1.083       .  S
C504        H512   1.083       .  S
C513        C514   1.408       .  A
C513        C518   1.408       .  A
C514        C515   1.399       .  A
C514       H1259   1.083       .  S
C515        C516   1.399       .  A
C515        H528   1.084       .  S
C516        C517   1.400       .  A
C516        C519   1.442       .  S
C517        C518   1.400       .  A
C517        H529   1.083       .  S
C518        H530   1.083       .  S
C519        C520   1.207       .  T
C520        C521   1.442       .  S
C521        C522   1.399       .  A
C521        C526   1.401       .  A
C522        C523   1.398       .  A
C522        H531   1.083       .  S
C523        C524   1.407       .  A
C524        C525   1.407       .  A
C525        C526   1.400       .  A
C525        H533   1.083       .  S
C526        H534   1.083       .  S
H527       C1246   1.083   1_545  S
C535        C536   1.409       .  A
C535        C540   1.409       .  A
C536        C537   1.405       .  A
C536        H549   1.083       .  S
C537        C538   1.403       .  A
C537        H550   1.083       .  S
C538        C539   1.404       .  A
C538        C541   1.459       .  S
C539        C540   1.406       .  A
C539        H551   1.083       .  S
C540        H552   1.083       .  S
C541        C542   1.218       .  T
C542        C543   1.459       .  S
C543        C544   1.404       .  A
C543        C548   1.403       .  A
C544        C545   1.406       .  A
C544        H553   1.083       .  S
C545        C546   1.410       .  A
C545        H554   1.083       .  S
C546        C547   1.410       .  A
C547        C548   1.406       .  A
C547        H555   1.083       .  S
C548        H556   1.083       .  S
C557        C558   1.407       .  A
C557        C562   1.408       .  A
C558        C559   1.400       .  A
C558        H571   1.081       .  S
C559        C560   1.400       .  A
C559        H572   1.084       .  S
C560        C561   1.401       .  A
C560        C563   1.447       .  S
C561        C562   1.403       .  A
C561        H573   1.083       .  S
C562        H574   1.083       .  S
C563        C564   1.210       .  T
C564        C565   1.447       .  S
C565        C566   1.402       .  A
C565        C570   1.400       .  A
C566        C567   1.403       .  A
C566        H575   1.083       .  S
C567        C568   1.409       .  A
C567       H1308   1.083       .  S
C568        C569   1.408       .  A
C569        C570   1.400       .  A
C569        H577   1.083       .  S
C570        H578   1.083       .  S
H576       C1299   1.083       .  S
C579        C580   1.409       .  A
C580        C581   1.405       .  A
C580        H593   1.082       .  S
C581        C582   1.403       .  A
C581        H594   1.083       .  S
C582        C583   1.401       .  A
C582        C585   1.453       .  S
C583        H595   1.083       .  S
C584        H596   1.083       .  S
C585        C586   1.214       .  T
C586        C587   1.454       .  S
C587        C588   1.402       .  A
C587        C592   1.402       .  A
C588        C589   1.404       .  A
C588        H597   1.083       .  S
C589        C590   1.409       .  A
C589       H1330   1.083       .  S
C590        C591   1.409       .  A
C591        C592   1.404       .  A
C591        H599   1.083       .  S
C592        H600   1.083       .  S
H598       C1321   1.083       .  S
C601        C602   1.409       .  A
C601        C606   1.408       .  A
C602        C603   1.404       .  A
C602        H615   1.083       .  S
C603        C604   1.402       .  A
C603        H616   1.083       .  S
C604        C605   1.405       .  A
C604        C607   1.459       .  S
C605        C606   1.407       .  A
C605        H617   1.083       .  S
C606        H618   1.083       .  S
C607        C608   1.218       .  T
C608        C609   1.459       .  S
C609        C610   1.404       .  A
C609        C614   1.402       .  A
C610        C611   1.408       .  A
C610        H619   1.083       .  S
C611        C612   1.410       .  A
C611        H620   1.083       .  S
C612        C613   1.410       .  A
C613        C614   1.405       .  A
C613        H621   1.083       .  S
C614        H622   1.083       .  S
C623        C624   1.408       .  A
C623        C628   1.409       .  A
C624        C625   1.402       .  A
C624       H2101   1.083       .  S
C625        C626   1.402       .  A
C625        H638   1.083       .  S
C626        C627   1.400       .  A
C626        C629   1.447       .  S
C627        C628   1.401       .  A
C627        H639   1.083       .  S
C628        H640   1.083       .  S
C629        C630   1.210       .  T
C630        C631   1.447       .  S
C631        C632   1.402       .  A
C631        C636   1.400       .  A
C632        C633   1.402       .  A
C632        H641   1.083       .  S
C633        C634   1.407       .  A
C633        H642   1.082       .  S
C634        C635   1.408       .  A
C635        C636   1.400       .  A
C635        H643   1.083       .  S
C636        H644   1.084       .  S
H637       C2088   1.083   1_455  S
C645        C646   1.411       .  A
C645        C650   1.411       .  A
C646        C647   1.407       .  A
C646        H659   1.083       .  S
C647        C648   1.404       .  A
C647        H660   1.083       .  S
C648        C649   1.405       .  A
C648        C651   1.465       .  S
C649        C650   1.411       .  A
C649        H661   1.083       .  S
C650        H662   1.083       .  S
C651        C652   1.221       .  T
C652        C653   1.465       .  S
C653        C654   1.406       .  A
C653        C658   1.403       .  A
C654        C655   1.410       .  A
C654        H663   1.083       .  S
C655        C656   1.409       .  A
C655        H664   1.083       .  S
C656        C657   1.409       .  A
C657        C658   1.406       .  A
C657        H665   1.083       .  S
C658        H666   1.083       .  S
C667        C668   1.410       .  A
C667        C672   1.409       .  A
C668        C669   1.401       .  A
C668        H681   1.083       .  S
C669        C670   1.400       .  A
C669        H682   1.084       .  S
C670        C671   1.406       .  A
C670        C673   1.457       .  S
C671        C672   1.410       .  A
C671        H683   1.083       .  S
C672        H684   1.083       .  S
C673        C674   1.216       .  T
C674        C675   1.457       .  S
C675        C676   1.403       .  A
C675        C680   1.403       .  A
C676        C677   1.406       .  A
C676        H685   1.083       .  S
C677        C678   1.411       .  A
C677        H686   1.083       .  S
C678        C679   1.409       .  A
C679        C680   1.405       .  A
C679        H687   1.083       .  S
C680        H688   1.083       .  S
C689        C690   1.410       .  A
C689        C694   1.408       .  A
C690        C691   1.404       .  A
C690        H703   1.083       .  S
C691        C692   1.402       .  A
C691        H704   1.083       .  S
C692        C693   1.407       .  A
C692        C695   1.463       .  S
C693        C694   1.411       .  A
C693        H705   1.083       .  S
C694        H706   1.082       .  S
C695        C696   1.220       .  T
C696        C697   1.464       .  S
C697        C698   1.404       .  A
C697        C702   1.404       .  A
C698        C699   1.408       .  A
C698        H707   1.083       .  S
C699        C700   1.411       .  A
C699        H708   1.083       .  S
C700        C701   1.411       .  A
C701        C702   1.408       .  A
C701        H709   1.083       .  S
C702        H710   1.083       .  S
C711        C712   1.411       .  A
C711        C716   1.409       .  A
C712        C713   1.406       .  A
C712        H725   1.083       .  S
C713        C714   1.402       .  A
C713        H726   1.083       .  S
C714        C715   1.404       .  A
C714        C717   1.458       .  S
C715        C716   1.406       .  A
C715        H727   1.083       .  S
C716        H728   1.083       .  S
C717        C718   1.217       .  T
C718        C719   1.458       .  S
C719        C720   1.405       .  A
C719        C724   1.402       .  A
C720        C721   1.408       .  A
C720        H729   1.083       .  S
C721        C722   1.408       .  A
C721        H730   1.082       .  S
C722        C723   1.409       .  A
C723        C724   1.404       .  A
C723        H731   1.083       .  S
C724        H732   1.083       .  S
O733       Ni741   1.942       .  S
O733        C743   1.286       .  A
O734       Ni741   1.939       .  S
O734        C744   1.286       .  A
O735       Ni741   1.929       .  S
O735        C745   1.283       .  A
O736       Ni741   1.928       .  S
O736        C746   1.283       .  A
O737       Ni742   1.933       .  S
O737        C746   1.285       .  A
O738       Ni742   1.934       .  S
O738        C745   1.285       .  A
O739       Ni742   1.934       .  S
O739        C744   1.285       .  A
O740       Ni742   1.934       .  S
O740        C743   1.285       .  A
Ni741      Ni742   2.380       .  S
C743       C1011   1.505       .  S
C744       C1066   1.503       .  S
C745       C1077   1.498       .  S
C746       C1044   1.497       .  S
N747       C1117   1.361       .  A
N747        C748   1.364       .  A
N747        C763   1.448       .  S
C748        C967   1.493       .  S
C748        C749   1.385       .  A
C749       C1116   1.367       .  A
C749        H752   1.083       .  S
C750       C1115   1.367       .  A
C750        C751   1.382   1_556  A
C750        H753   1.082   1_556  S
C751       C1000   1.488       .  S
C751       N1113   1.361   1_554  A
N754       C1124   1.368       .  A
N754        C755   1.371   1_556  A
N754        C761   1.463       .  S
C755       C1022   1.498       .  S
C755        C756   1.384       .  A
C756       C1123   1.363   1_554  A
C756        H759   1.083       .  S
C757       C1122   1.363       .  A
C757        C758   1.382       .  A
C757        H760   1.082       .  S
C758       C1033   1.496       .  S
C758       N1120   1.368       .  A
C761        C762   1.416       .  A
C761       C1132   1.408       .  A
C762       C1129   1.413       .  A
C762        H767   1.083       .  S
C763       C1128   1.413       .  A
C763        C764   1.400       .  A
C764        C765   1.407       .  A
C764        H768   1.081       .  S
C765        N770   1.444       .  S
C765        C766   1.423       .  A
C766       C1127   1.408       .  A
C766        H769   1.083       .  S
N770        C774   1.360       .  A
N770        C771   1.359       .  A
C771        C923   1.488       .  S
C771        C772   1.382       .  A
C772        C773   1.370       .  A
C772        H775   1.082       .  S
C773        C774   1.385       .  A
C773        H776   1.082       .  S
C774       C1311   1.493       .  S
O777       Ni785   1.931       .  S
O778       Ni785   1.928       .  S
O778        C788   1.283       .  A
O779       Ni785   1.920       .  S
O779        C789   1.282       .  A
O780       Ni785   1.917       .  S
O781       Ni786   1.922       .  S
O781        C790   1.282       .  A
O782       Ni786   1.924       .  S
O783       Ni786   1.930       .  S
O784       Ni786   1.933       .  S
O784        C787   1.285       .  A
C787        C912   1.498       .  S
C788        C956   1.493       .  S
C789        C934   1.488       .  S
C790        C879   1.484       .  S
O791       Ni799   1.936       .  S
O791        C801   1.285       .  A
O792       Ni799   1.937       .  S
O792       C2266   1.286       .  A
O793       Ni799   1.917       .  S
O793       C2267   1.281       .  A
O794       Ni799   1.919       .  S
O794        C804   1.282       .  A
O795       Ni800   1.924       .  S
O795       C2268   1.283   1_455  A
O796       Ni800   1.925       .  S
O796        C803   1.283       .  A
O797       Ni800   1.932       .  S
O797        C802   1.284       .  A
O798       Ni800   1.930       .  S
O798       C2265   1.284   1_455  A
Ni799     Ni2264   2.382       .  S
Ni800     Ni2263   2.382   1_455  S
C801       O2262   1.284       .  A
C801        C978   1.499       .  S
C802       O2256   1.286       .  A
C802        C868   1.501       .  S
C803       O2257   1.281       .  A
C803        C846   1.486       .  S
C804       O2259   1.283       .  A
C804        C989   1.487       .  S
N805        C809   1.369   1_556  A
N805       C1172   1.372       .  A
N805        C812   1.464       .  S
C806       C1055   1.497       .  S
C806       N1171   1.372       .  A
C806        C807   1.381       .  A
C807       C1174   1.362       .  A
C807        H810   1.083       .  S
C808       C1173   1.362   1_554  A
C808        C809   1.384       .  A
C808        H811   1.083       .  S
C809       C1088   1.493       .  S
C812       C1179   1.417       .  A
C812        C817   1.413       .  A
C813       C1178   1.417       .  A
C813        C814   1.412       .  A
C813        H818   1.083       .  S
C814        N828   1.450       .  S
C814       C1181   1.401       .  A
C815       C1180   1.401       .  A
C815        C816   1.406       .  A
C815       H1185   1.077       .  S
C816        N821   1.447   1_556  S
C816        C817   1.423       .  A
C817        H820   1.083   1_556  S
H819       C1181   1.077       .  S
N821       C1191   1.355   1_554  A
N821        C822   1.363       .  A
C822        C857   1.503       .  S
C822        C823   1.391       .  A
C823       C1190   1.372   1_554  A
C823        H826   1.082       .  S
C824       C1189   1.372       .  A
C824        C825   1.377       .  A
C824        H827   1.082       .  S
C825        C835   1.481       .  S
C825       N1187   1.355       .  A
N828        C832   1.358       .  A
N828        C829   1.365       .  A
C829        C901   1.494       .  S
C829        C830   1.387       .  A
C830        C831   1.368       .  A
C830        H833   1.083       .  S
C831        C832   1.379       .  A
C831        H834   1.082       .  S
C832       C1256   1.485       .  S
C835        C836   1.405       .  A
C835        C840   1.406       .  A
C836        C837   1.403       .  A
C836        H849   1.083       .  S
C837        C838   1.403       .  A
C837        H850   1.083       .  S
C838        C839   1.398       .  A
C838        C841   1.443       .  S
C839        C840   1.395       .  A
C839        H851   1.084       .  S
C840        H852   1.081       .  S
C841        C842   1.208       .  T
C842        C843   1.443       .  S
C843        C844   1.401       .  A
C843        C848   1.399       .  A
C844        C845   1.401       .  A
C844        H853   1.083       .  S
C845        C846   1.408       .  A
C845        H854   1.083       .  S
C846        C847   1.408       .  A
C847        C848   1.399       .  A
C847       H2319   1.083       .  S
C848        H856   1.084       .  S
H855       C2311   1.083       .  S
C857        C858   1.411       .  A
C857        C862   1.411       .  A
C858        C859   1.409       .  A
C858        H871   1.082       .  S
C859        C860   1.405       .  A
C859        H872   1.083       .  S
C860        C861   1.402       .  A
C860        C863   1.461       .  S
C861        C862   1.404       .  A
C861        H873   1.083       .  S
C862        H874   1.083       .  S
C863        C864   1.219       .  T
C864        C865   1.461       .  S
C865        C866   1.404       .  A
C865        C870   1.404       .  A
C866        C867   1.408       .  A
C866        H875   1.083       .  S
C867        C868   1.411       .  A
C867        H876   1.083       .  S
C868        C869   1.410       .  A
C869        C870   1.406       .  A
C869        H877   1.083       .  S
C870        H878   1.083       .  S
C879        C880   1.408       .  A
C879        C884   1.408       .  A
C880        C881   1.399       .  A
C881        C882   1.399       .  A
C881        H894   1.084       .  S
C882        C883   1.400       .  A
C882        C885   1.442       .  S
C883        C884   1.400       .  A
C883        H895   1.083       .  S
C884        H896   1.083       .  S
C885        C886   1.207       .  T
C886        C887   1.442       .  S
C887        C888   1.399       .  A
C887        C892   1.401       .  A
C888        C889   1.398       .  A
C888        H897   1.083       .  S
C889        C890   1.407       .  A
C889       H1264   1.080       .  S
C890       C1198   1.485   1_554  S
C890        C891   1.407       .  A
C891        C892   1.400       .  A
C891        H899   1.083       .  S
C892        H900   1.083       .  S
H898       C1255   1.080       .  S
C901        C902   1.409       .  A
C901        C906   1.409       .  A
C902        C903   1.405       .  A
C902        H915   1.083       .  S
C903        C904   1.403       .  A
C903        H916   1.083       .  S
C904        C905   1.404       .  A
C904        C907   1.459       .  S
C905        C906   1.406       .  A
C905        H917   1.083       .  S
C906        H918   1.083       .  S
C907        C908   1.218       .  T
C908        C909   1.459       .  S
C909        C910   1.404       .  A
C909        C914   1.403       .  A
C910        C911   1.406       .  A
C910        H919   1.083       .  S
C911        C912   1.410       .  A
C911        H920   1.083       .  S
C912        C913   1.410       .  A
C913        C914   1.406       .  A
C913        H921   1.083       .  S
C914        H922   1.083       .  S
C923        C924   1.407       .  A
C923        C928   1.408       .  A
C924        C925   1.400       .  A
C924        H937   1.081       .  S
C925        C926   1.400       .  A
C925        H938   1.084       .  S
C926        C927   1.401       .  A
C926        C929   1.447       .  S
C927        C928   1.403       .  A
C927        H939   1.083       .  S
C928        H940   1.083       .  S
C929        C930   1.210       .  T
C930        C931   1.447       .  S
C931        C932   1.402       .  A
C931        C936   1.400       .  A
C932        C933   1.403       .  A
C932        H941   1.083       .  S
C933        C934   1.409       .  A
C934        C935   1.408       .  A
C935        C936   1.400       .  A
C935        H943   1.083       .  S
C936        H944   1.083       .  S
C945       C1140   1.493       .  S
C945        C946   1.409       .  A
C945       C1316   1.409       .  A
C946        C947   1.405       .  A
C946        H959   1.082       .  S
C947        C948   1.403       .  A
C947        H960   1.083       .  S
C948        C949   1.401       .  A
C948        C951   1.453       .  S
C949       C1316   1.402       .  A
C949        H961   1.083       .  S
C950       C1311   1.409       .  A
C950       C1315   1.402       .  A
C950        H962   1.083       .  S
C951        C952   1.214       .  T
C952        C953   1.454       .  S
C953        C954   1.402       .  A
C953        C958   1.402       .  A
C954        C955   1.404       .  A
C954        H963   1.083       .  S
C955        C956   1.409       .  A
C956        C957   1.409       .  A
C957        C958   1.404       .  A
C957        H965   1.083       .  S
C958        H966   1.083       .  S
C967        C968   1.409       .  A
C967        C972   1.408       .  A
C968        C969   1.404       .  A
C968        H981   1.083       .  S
C969        C970   1.402       .  A
C969        H982   1.083       .  S
C970        C971   1.405       .  A
C970        C973   1.459       .  S
C971        C972   1.407       .  A
C971        H983   1.083       .  S
C972        H984   1.083       .  S
C973        C974   1.218       .  T
C974        C975   1.459       .  S
C975        C976   1.404       .  A
C975        C980   1.402       .  A
C976        C977   1.408       .  A
C976        H985   1.083       .  S
C977        C978   1.410       .  A
C977        H986   1.083       .  S
C978        C979   1.410       .  A
C979        C980   1.405       .  A
C979        H987   1.083       .  S
C980        H988   1.083       .  S
C989        C990   1.408       .  A
C989        C994   1.409       .  A
C990        C991   1.402       .  A
C990       H2467   1.083       .  S
C991        C992   1.402       .  A
C991       H1004   1.083       .  S
C992        C993   1.400       .  A
C992        C995   1.447       .  S
C993        C994   1.401       .  A
C993       H1005   1.083       .  S
C994       H1006   1.083       .  S
C995        C996   1.210       .  T
C996        C997   1.447       .  S
C997        C998   1.402       .  A
C997       C1002   1.400       .  A
C998        C999   1.402       .  A
C998       H1007   1.083       .  S
C999       C1000   1.407       .  A
C999       H1008   1.082       .  S
C1000      C1001   1.408       .  A
C1001      C1002   1.400       .  A
C1001      H1009   1.083       .  S
C1002      H1010   1.084       .  S
H1003      C2454   1.083   1_455  S
C1011      C1012   1.411       .  A
C1011      C1016   1.411       .  A
C1012      C1013   1.407       .  A
C1012      H1025   1.083       .  S
C1013      C1014   1.404       .  A
C1013      H1026   1.083       .  S
C1014      C1015   1.405       .  A
C1014      C1017   1.465       .  S
C1015      C1016   1.411       .  A
C1015      H1027   1.083       .  S
C1016      H1028   1.083       .  S
C1017      C1018   1.221       .  T
C1018      C1019   1.465       .  S
C1019      C1020   1.406       .  A
C1019      C1024   1.403       .  A
C1020      C1021   1.410       .  A
C1020      H1029   1.083       .  S
C1021      C1022   1.409       .  A
C1021      H1030   1.083       .  S
C1022      C1023   1.409       .  A
C1023      C1024   1.406       .  A
C1023      H1031   1.083       .  S
C1024      H1032   1.083       .  S
C1033      C1034   1.410       .  A
C1033      C1038   1.409       .  A
C1034      C1035   1.401       .  A
C1034      H1047   1.083       .  S
C1035      C1036   1.400       .  A
C1035      H1048   1.084       .  S
C1036      C1037   1.406       .  A
C1036      C1039   1.457       .  S
C1037      C1038   1.410       .  A
C1037      H1049   1.083       .  S
C1038      H1050   1.083       .  S
C1039      C1040   1.216       .  T
C1040      C1041   1.457       .  S
C1041      C1042   1.403       .  A
C1041      C1046   1.403       .  A
C1042      C1043   1.406       .  A
C1042      H1051   1.083       .  S
C1043      C1044   1.411       .  A
C1043      H1052   1.083       .  S
C1044      C1045   1.409       .  A
C1045      C1046   1.405       .  A
C1045      H1053   1.083       .  S
C1046      H1054   1.083       .  S
C1055      C1056   1.410       .  A
C1055      C1060   1.408       .  A
C1056      C1057   1.404       .  A
C1056      H1069   1.083       .  S
C1057      C1058   1.402       .  A
C1057      H1070   1.083       .  S
C1058      C1059   1.407       .  A
C1058      C1061   1.463       .  S
C1059      C1060   1.411       .  A
C1059      H1071   1.083       .  S
C1060      H1072   1.082       .  S
C1061      C1062   1.220       .  T
C1062      C1063   1.464       .  S
C1063      C1064   1.404       .  A
C1063      C1068   1.404       .  A
C1064      C1065   1.408       .  A
C1064      H1073   1.083       .  S
C1065      C1066   1.411       .  A
C1065      H1074   1.083       .  S
C1066      C1067   1.411       .  A
C1067      C1068   1.408       .  A
C1067      H1075   1.083       .  S
C1068      H1076   1.083       .  S
C1077      C1078   1.411       .  A
C1077      C1082   1.409       .  A
C1078      C1079   1.406       .  A
C1078      H1091   1.083       .  S
C1079      C1080   1.402       .  A
C1079      H1092   1.083       .  S
C1080      C1081   1.404       .  A
C1080      C1083   1.458       .  S
C1081      C1082   1.406       .  A
C1081      H1093   1.083       .  S
C1082      H1094   1.083       .  S
C1083      C1084   1.217       .  T
C1084      C1085   1.458       .  S
C1085      C1086   1.405       .  A
C1085      C1090   1.402       .  A
C1086      C1087   1.408       .  A
C1086      H1095   1.083       .  S
C1087      C1088   1.408       .  A
C1087      H1096   1.082       .  S
C1088      C1089   1.409       .  A
C1089      C1090   1.404       .  A
C1089      H1097   1.083       .  S
C1090      H1098   1.083       .  S
O1099     Ni1107   1.942       .  S
O1099      C1109   1.286       .  A
O1100     Ni1107   1.939       .  S
O1100      C1110   1.286       .  A
O1101     Ni1107   1.929       .  S
O1101      C1111   1.283       .  A
O1102     Ni1107   1.928       .  S
O1102      C1112   1.283       .  A
O1103     Ni1108   1.933       .  S
O1103      C1112   1.285       .  A
O1104     Ni1108   1.934       .  S
O1104      C1111   1.285       .  A
O1105     Ni1108   1.934       .  S
O1105      C1110   1.285       .  A
O1106     Ni1108   1.934       .  S
O1106      C1109   1.285       .  A
Ni1107    Ni1108   2.380       .  S
C1109      C1377   1.505       .  S
C1110      C1432   1.503       .  S
C1111      C1443   1.498       .  S
C1112      C1410   1.497       .  S
N1113      C1114   1.364       .  A
N1113      C1129   1.448       .  S
C1114      C1333   1.493       .  S
C1114      C1115   1.385       .  A
C1115      H1118   1.083       .  S
C1116      C1117   1.382       .  A
C1116      H1119   1.082       .  S
C1117      C1366   1.488       .  S
N1120      C1121   1.371       .  A
N1120      C1127   1.463       .  S
C1121      C1388   1.498       .  S
C1121      C1122   1.384       .  A
C1122      H1125   1.083       .  S
C1123      C1124   1.382       .  A
C1123      H1126   1.082       .  S
C1124      C1399   1.496       .  S
C1127      C1128   1.416       .  A
C1128      H1133   1.083       .  S
C1129      C1130   1.400       .  A
C1130      C1131   1.407       .  A
C1130      H1134   1.081       .  S
C1131      N1136   1.444       .  S
C1131      C1132   1.423       .  A
C1132      H1135   1.083       .  S
N1136      C1140   1.360   1_556  A
N1136      C1137   1.359       .  A
C1137      C1289   1.488       .  S
C1137      C1138   1.382       .  A
C1138      C1139   1.370       .  A
C1138      H1141   1.082       .  S
C1139      C1140   1.385   1_556  A
C1139      H1142   1.082   1_556  S
O1143     Ni1151   1.931       .  S
O1144     Ni1151   1.928       .  S
O1144      C1154   1.283       .  A
O1145     Ni1151   1.920       .  S
O1145      C1155   1.282       .  A
O1146     Ni1151   1.917       .  S
O1147     Ni1152   1.922       .  S
O1147      C1156   1.282       .  A
O1148     Ni1152   1.924       .  S
O1149     Ni1152   1.930       .  S
O1150     Ni1152   1.933       .  S
O1150      C1153   1.285       .  A
C1153      C1278   1.498       .  S
C1154      C1322   1.493       .  S
C1155      C1300   1.488       .  S
C1156      C1245   1.484       .  S
O1157     Ni1165   1.936       .  S
O1157      C1167   1.285       .  A
O1158     Ni1165   1.937       .  S
O1158      C2632   1.286       .  A
O1159     Ni1165   1.917       .  S
O1159      C2633   1.281       .  A
O1160     Ni1165   1.919       .  S
O1160      C1170   1.282       .  A
O1161     Ni1166   1.924       .  S
O1161      C2634   1.283   1_455  A
O1162     Ni1166   1.925       .  S
O1162      C1169   1.283       .  A
O1163     Ni1166   1.932       .  S
O1163      C1168   1.284       .  A
O1164     Ni1166   1.930       .  S
O1164      C2631   1.284   1_455  A
Ni1165    Ni2630   2.382       .  S
Ni1166    Ni2629   2.382   1_455  S
C1167      O2628   1.284       .  A
C1167      C1344   1.499       .  S
C1168      O2622   1.286       .  A
C1168      C1234   1.501       .  S
C1169      O2623   1.281       .  A
C1169      C1212   1.486       .  S
C1170      O2625   1.283       .  A
C1170      C1355   1.487       .  S
N1171      C1175   1.369       .  A
N1171      C1178   1.464       .  S
C1172      C1421   1.497       .  S
C1172      C1173   1.381       .  A
C1173      H1176   1.083       .  S
C1174      C1175   1.384       .  A
C1174      H1177   1.083       .  S
C1175      C1454   1.493       .  S
C1178      C1183   1.413       .  A
C1179      C1180   1.412       .  A
C1179      H1184   1.083       .  S
C1180      N1194   1.450       .  S
C1181      C1182   1.406       .  A
C1182      N1187   1.447       .  S
C1182      C1183   1.423       .  A
C1183      H1186   1.083       .  S
N1187      C1188   1.363       .  A
C1188      C1223   1.503       .  S
C1188      C1189   1.391       .  A
C1189      H1192   1.082       .  S
C1190      C1191   1.377       .  A
C1190      H1193   1.082       .  S
C1191      C1201   1.481       .  S
N1194      C1198   1.358       .  A
N1194      C1195   1.365       .  A
C1195      C1267   1.494       .  S
C1195      C1196   1.387       .  A
C1196      C1197   1.368       .  A
C1196      H1199   1.083       .  S
C1197      C1198   1.379       .  A
C1197      H1200   1.082       .  S
C1201      C1202   1.405       .  A
C1201      C1206   1.406       .  A
C1202      C1203   1.403       .  A
C1202      H1215   1.083       .  S
C1203      C1204   1.403       .  A
C1203      H1216   1.083       .  S
C1204      C1205   1.398       .  A
C1204      C1207   1.443       .  S
C1205      C1206   1.395       .  A
C1205      H1217   1.084       .  S
C1206      H1218   1.081       .  S
C1207      C1208   1.208       .  T
C1208      C1209   1.443       .  S
C1209      C1210   1.401       .  A
C1209      C1214   1.399       .  A
C1210      C1211   1.401       .  A
C1210      H1219   1.083       .  S
C1211      C1212   1.408       .  A
C1211      H1220   1.083       .  S
C1212      C1213   1.408       .  A
C1213      C1214   1.399       .  A
C1213      H2685   1.083       .  S
C1214      H1222   1.084       .  S
H1221      C2677   1.083       .  S
C1223      C1224   1.411       .  A
C1223      C1228   1.411       .  A
C1224      C1225   1.409       .  A
C1224      H1237   1.082       .  S
C1225      C1226   1.405       .  A
C1225      H1238   1.083       .  S
C1226      C1227   1.402       .  A
C1226      C1229   1.461       .  S
C1227      C1228   1.404       .  A
C1227      H1239   1.083       .  S
C1228      H1240   1.083       .  S
C1229      C1230   1.219       .  T
C1230      C1231   1.461       .  S
C1231      C1232   1.404       .  A
C1231      C1236   1.404       .  A
C1232      C1233   1.408       .  A
C1232      H1241   1.083       .  S
C1233      C1234   1.411       .  A
C1233      H1242   1.083       .  S
C1234      C1235   1.410       .  A
C1235      C1236   1.406       .  A
C1235      H1243   1.083       .  S
C1236      H1244   1.083       .  S
C1245      C1246   1.408       .  A
C1245      C1250   1.408       .  A
C1246      C1247   1.399       .  A
C1247      C1248   1.399       .  A
C1247      H1260   1.084       .  S
C1248      C1249   1.400       .  A
C1248      C1251   1.442       .  S
C1249      C1250   1.400       .  A
C1249      H1261   1.083       .  S
C1250      H1262   1.083       .  S
C1251      C1252   1.207       .  T
C1252      C1253   1.442       .  S
C1253      C1254   1.399       .  A
C1253      C1258   1.401       .  A
C1254      C1255   1.398       .  A
C1254      H1263   1.083       .  S
C1255      C1256   1.407       .  A
C1256      C1257   1.407       .  A
C1257      C1258   1.400       .  A
C1257      H1265   1.083       .  S
C1258      H1266   1.083       .  S
C1267      C1268   1.409       .  A
C1267      C1272   1.409       .  A
C1268      C1269   1.405       .  A
C1268      H1281   1.083       .  S
C1269      C1270   1.403       .  A
C1269      H1282   1.083       .  S
C1270      C1271   1.404       .  A
C1270      C1273   1.459       .  S
C1271      C1272   1.406       .  A
C1271      H1283   1.083       .  S
C1272      H1284   1.083       .  S
C1273      C1274   1.218       .  T
C1274      C1275   1.459       .  S
C1275      C1276   1.404       .  A
C1275      C1280   1.403       .  A
C1276      C1277   1.406       .  A
C1276      H1285   1.083       .  S
C1277      C1278   1.410       .  A
C1277      H1286   1.083       .  S
C1278      C1279   1.410       .  A
C1279      C1280   1.406       .  A
C1279      H1287   1.083       .  S
C1280      H1288   1.083       .  S
C1289      C1290   1.407       .  A
C1289      C1294   1.408       .  A
C1290      C1291   1.400       .  A
C1290      H1303   1.081       .  S
C1291      C1292   1.400       .  A
C1291      H1304   1.084       .  S
C1292      C1293   1.401       .  A
C1292      C1295   1.447       .  S
C1293      C1294   1.403       .  A
C1293      H1305   1.083       .  S
C1294      H1306   1.083       .  S
C1295      C1296   1.210       .  T
C1296      C1297   1.447       .  S
C1297      C1298   1.402       .  A
C1297      C1302   1.400       .  A
C1298      C1299   1.403       .  A
C1298      H1307   1.083       .  S
C1299      C1300   1.409       .  A
C1300      C1301   1.408       .  A
C1301      C1302   1.400       .  A
C1301      H1309   1.083       .  S
C1302      H1310   1.083       .  S
C1311      C1312   1.409       .  A
C1312      C1313   1.405       .  A
C1312      H1325   1.082       .  S
C1313      C1314   1.403       .  A
C1313      H1326   1.083       .  S
C1314      C1315   1.401       .  A
C1314      C1317   1.453       .  S
C1315      H1327   1.083       .  S
C1316      H1328   1.083       .  S
C1317      C1318   1.214       .  T
C1318      C1319   1.454       .  S
C1319      C1320   1.402       .  A
C1319      C1324   1.402       .  A
C1320      C1321   1.404       .  A
C1320      H1329   1.083       .  S
C1321      C1322   1.409       .  A
C1322      C1323   1.409       .  A
C1323      C1324   1.404       .  A
C1323      H1331   1.083       .  S
C1324      H1332   1.083       .  S
C1333      C1334   1.409       .  A
C1333      C1338   1.408       .  A
C1334      C1335   1.404       .  A
C1334      H1347   1.083       .  S
C1335      C1336   1.402       .  A
C1335      H1348   1.083       .  S
C1336      C1337   1.405       .  A
C1336      C1339   1.459       .  S
C1337      C1338   1.407       .  A
C1337      H1349   1.083       .  S
C1338      H1350   1.083       .  S
C1339      C1340   1.218       .  T
C1340      C1341   1.459       .  S
C1341      C1342   1.404       .  A
C1341      C1346   1.402       .  A
C1342      C1343   1.408       .  A
C1342      H1351   1.083       .  S
C1343      C1344   1.410       .  A
C1343      H1352   1.083       .  S
C1344      C1345   1.410       .  A
C1345      C1346   1.405       .  A
C1345      H1353   1.083       .  S
C1346      H1354   1.083       .  S
C1355      C1356   1.408       .  A
C1355      C1360   1.409       .  A
C1356      C1357   1.402       .  A
C1356      H2833   1.083       .  S
C1357      C1358   1.402       .  A
C1357      H1370   1.083       .  S
C1358      C1359   1.400       .  A
C1358      C1361   1.447       .  S
C1359      C1360   1.401       .  A
C1359      H1371   1.083       .  S
C1360      H1372   1.083       .  S
C1361      C1362   1.210       .  T
C1362      C1363   1.447       .  S
C1363      C1364   1.402       .  A
C1363      C1368   1.400       .  A
C1364      C1365   1.402       .  A
C1364      H1373   1.083       .  S
C1365      C1366   1.407       .  A
C1365      H1374   1.082       .  S
C1366      C1367   1.408       .  A
C1367      C1368   1.400       .  A
C1367      H1375   1.083       .  S
C1368      H1376   1.084       .  S
H1369      C2820   1.083   1_455  S
C1377      C1378   1.411       .  A
C1377      C1382   1.411       .  A
C1378      C1379   1.407       .  A
C1378      H1391   1.083       .  S
C1379      C1380   1.404       .  A
C1379      H1392   1.083       .  S
C1380      C1381   1.405       .  A
C1380      C1383   1.465       .  S
C1381      C1382   1.411       .  A
C1381      H1393   1.083       .  S
C1382      H1394   1.083       .  S
C1383      C1384   1.221       .  T
C1384      C1385   1.465       .  S
C1385      C1386   1.406       .  A
C1385      C1390   1.403       .  A
C1386      C1387   1.410       .  A
C1386      H1395   1.083       .  S
C1387      C1388   1.409       .  A
C1387      H1396   1.083       .  S
C1388      C1389   1.409       .  A
C1389      C1390   1.406       .  A
C1389      H1397   1.083       .  S
C1390      H1398   1.083       .  S
C1399      C1400   1.410       .  A
C1399      C1404   1.409       .  A
C1400      C1401   1.401       .  A
C1400      H1413   1.083       .  S
C1401      C1402   1.400       .  A
C1401      H1414   1.084       .  S
C1402      C1403   1.406       .  A
C1402      C1405   1.457       .  S
C1403      C1404   1.410       .  A
C1403      H1415   1.083       .  S
C1404      H1416   1.083       .  S
C1405      C1406   1.216       .  T
C1406      C1407   1.457       .  S
C1407      C1408   1.403       .  A
C1407      C1412   1.403       .  A
C1408      C1409   1.406       .  A
C1408      H1417   1.083       .  S
C1409      C1410   1.411       .  A
C1409      H1418   1.083       .  S
C1410      C1411   1.409       .  A
C1411      C1412   1.405       .  A
C1411      H1419   1.083       .  S
C1412      H1420   1.083       .  S
C1421      C1422   1.410       .  A
C1421      C1426   1.408       .  A
C1422      C1423   1.404       .  A
C1422      H1435   1.083       .  S
C1423      C1424   1.402       .  A
C1423      H1436   1.083       .  S
C1424      C1425   1.407       .  A
C1424      C1427   1.463       .  S
C1425      C1426   1.411       .  A
C1425      H1437   1.083       .  S
C1426      H1438   1.082       .  S
C1427      C1428   1.220       .  T
C1428      C1429   1.464       .  S
C1429      C1430   1.404       .  A
C1429      C1434   1.404       .  A
C1430      C1431   1.408       .  A
C1430      H1439   1.083       .  S
C1431      C1432   1.411       .  A
C1431      H1440   1.083       .  S
C1432      C1433   1.411       .  A
C1433      C1434   1.408       .  A
C1433      H1441   1.083       .  S
C1434      H1442   1.083       .  S
C1443      C1444   1.411       .  A
C1443      C1448   1.409       .  A
C1444      C1445   1.406       .  A
C1444      H1457   1.083       .  S
C1445      C1446   1.402       .  A
C1445      H1458   1.083       .  S
C1446      C1447   1.404       .  A
C1446      C1449   1.458       .  S
C1447      C1448   1.406       .  A
C1447      H1459   1.083       .  S
C1448      H1460   1.083       .  S
C1449      C1450   1.217       .  T
C1450      C1451   1.458       .  S
C1451      C1452   1.405       .  A
C1451      C1456   1.402       .  A
C1452      C1453   1.408       .  A
C1452      H1461   1.083       .  S
C1453      C1454   1.408       .  A
C1453      H1462   1.082       .  S
C1454      C1455   1.409       .  A
C1455      C1456   1.404       .  A
C1455      H1463   1.083       .  S
C1456      H1464   1.083       .  S
O1465     Ni1473   1.942       .  S
O1465      C1475   1.286       .  A
O1466     Ni1473   1.939       .  S
O1466      C1476   1.286       .  A
O1467     Ni1473   1.929       .  S
O1467      C1477   1.283       .  A
O1468     Ni1473   1.928       .  S
O1468      C1478   1.283       .  A
O1469     Ni1474   1.933       .  S
O1469      C1478   1.285       .  A
O1470     Ni1474   1.934       .  S
O1470      C1477   1.285       .  A
O1471     Ni1474   1.934       .  S
O1471      C1476   1.285       .  A
O1472     Ni1474   1.934       .  S
O1472      C1475   1.285       .  A
Ni1473    Ni1474   2.380       .  S
C1475      C1743   1.505       .  S
C1476      C1798   1.503       .  S
C1477      C1809   1.498       .  S
C1478      C1776   1.497       .  S
N1479      C1849   1.361       .  A
N1479      C1480   1.364       .  A
N1479      C1495   1.448       .  S
C1480      C1699   1.493       .  S
C1480      C1481   1.385       .  A
C1481      C1848   1.367       .  A
C1481      H1484   1.083       .  S
C1482      C1847   1.367       .  A
C1482      C1483   1.382   1_556  A
C1482      H1485   1.082   1_556  S
C1483      C1732   1.488       .  S
C1483      N1845   1.361   1_554  A
N1486      C1856   1.368       .  A
N1486      C1487   1.371   1_556  A
N1486      C1493   1.463       .  S
C1487      C1754   1.498       .  S
C1487      C1488   1.384       .  A
C1488      C1855   1.363   1_554  A
C1488      H1491   1.083       .  S
C1489      C1854   1.363       .  A
C1489      C1490   1.382       .  A
C1489      H1492   1.082       .  S
C1490      C1765   1.496       .  S
C1490      N1852   1.368       .  A
C1493      C1494   1.416       .  A
C1493      C1864   1.408       .  A
C1494      C1861   1.413       .  A
C1494      H1499   1.083       .  S
C1495      C1860   1.413       .  A
C1495      C1496   1.400       .  A
C1496      C1497   1.407       .  A
C1496      H1500   1.081       .  S
C1497      N1502   1.444       .  S
C1497      C1498   1.423       .  A
C1498      C1859   1.408       .  A
C1498      H1501   1.083       .  S
N1502      C1506   1.360       .  A
N1502      C1503   1.359       .  A
C1503      C1655   1.488       .  S
C1503      C1504   1.382       .  A
C1504      C1505   1.370       .  A
C1504      H1507   1.082       .  S
C1505      C1506   1.385       .  A
C1505      H1508   1.082       .  S
C1506      C2043   1.493       .  S
O1509     Ni1517   1.931       .  S
O1509      C2251   1.284   1_545  A
O1510     Ni1517   1.928       .  S
O1510      C1520   1.283       .  A
O1511     Ni1517   1.920       .  S
O1511      C1521   1.282       .  A
O1512     Ni1517   1.917       .  S
O1512      C2254   1.282   1_545  A
O1513     Ni1518   1.922       .  S
O1513      C1522   1.282       .  A
O1514     Ni1518   1.924       .  S
O1514      C2253   1.283       .  A
O1515     Ni1518   1.930       .  S
O1515      C2252   1.284       .  A
O1516     Ni1518   1.933       .  S
O1516      C1519   1.285       .  A
Ni1517    Ni2250   2.383   1_545  S
Ni1518    Ni2249   2.383       .  S
C1519      O2241   1.284       .  A
C1519      C1644   1.498       .  S
C1520      O2247   1.284   1_545  A
C1520      C1688   1.493       .  S
C1521      O2246   1.283   1_545  A
C1521      C1666   1.488       .  S
C1522      O2244   1.282       .  A
C1522      C1611   1.484       .  S
O1523     Ni1531   1.936       .  S
O1523      C1533   1.285       .  A
O1524     Ni1531   1.937   1_455  S
O1525     Ni1531   1.917   1_455  S
O1526     Ni1531   1.919       .  S
O1526      C1536   1.282       .  A
O1527     Ni1532   1.924       .  S
O1528     Ni1532   1.925       .  S
O1528      C1535   1.283       .  A
O1529     Ni1532   1.932       .  S
O1529      C1534   1.284       .  A
O1530     Ni1532   1.930       .  S
C1533      C1710   1.499       .  S
C1534      C1600   1.501       .  S
C1535      C1578   1.486       .  S
C1536      C1721   1.487       .  S
N1537      C1541   1.369   1_556  A
N1537      C1904   1.372       .  A
N1537      C1544   1.464       .  S
C1538      C1787   1.497       .  S
C1538      N1903   1.372       .  A
C1538      C1539   1.381       .  A
C1539      C1906   1.362       .  A
C1539      H1542   1.083       .  S
C1540      C1905   1.362   1_554  A
C1540      C1541   1.384       .  A
C1540      H1543   1.083       .  S
C1541      C1820   1.493       .  S
C1544      C1911   1.417       .  A
C1544      C1549   1.413       .  A
C1545      C1910   1.417       .  A
C1545      C1546   1.412       .  A
C1545      H1550   1.083       .  S
C1546      N1560   1.450       .  S
C1546      C1913   1.401       .  A
C1547      C1912   1.401       .  A
C1547      C1548   1.406       .  A
C1547      H1917   1.077       .  S
C1548      N1553   1.447   1_556  S
C1548      C1549   1.423       .  A
C1549      H1552   1.083   1_556  S
H1551      C1913   1.077       .  S
N1553      C1923   1.355   1_554  A
N1553      C1554   1.363       .  A
C1554      C1589   1.503       .  S
C1554      C1555   1.391       .  A
C1555      C1922   1.372   1_554  A
C1555      H1558   1.082       .  S
C1556      C1921   1.372       .  A
C1556      C1557   1.377       .  A
C1556      H1559   1.082       .  S
C1557      C1567   1.481       .  S
C1557      N1919   1.355       .  A
N1560      C1564   1.358       .  A
N1560      C1561   1.365       .  A
C1561      C1633   1.494       .  S
C1561      C1562   1.387       .  A
C1562      C1563   1.368       .  A
C1562      H1565   1.083       .  S
C1563      C1564   1.379       .  A
C1563      H1566   1.082       .  S
C1564      C1988   1.485       .  S
C1567      C1568   1.405       .  A
C1567      C1572   1.406       .  A
C1568      C1569   1.403       .  A
C1568      H1581   1.083       .  S
C1569      C1570   1.403       .  A
C1569      H1582   1.083       .  S
C1570      C1571   1.398       .  A
C1570      C1573   1.443       .  S
C1571      C1572   1.395       .  A
C1571      H1583   1.084       .  S
C1572      H1584   1.081       .  S
C1573      C1574   1.208       .  T
C1574      C1575   1.443       .  S
C1575      C1576   1.401       .  A
C1575      C1580   1.399       .  A
C1576      C1577   1.401       .  A
C1576      H1585   1.083       .  S
C1577      C1578   1.408       .  A
C1577      H1586   1.083       .  S
C1578      C1579   1.408       .  A
C1579      C1580   1.399       .  A
C1580      H1588   1.084       .  S
C1589      C1590   1.411       .  A
C1589      C1594   1.411       .  A
C1590      C1591   1.409       .  A
C1590      H1603   1.082       .  S
C1591      C1592   1.405       .  A
C1591      H1604   1.083       .  S
C1592      C1593   1.402       .  A
C1592      C1595   1.461       .  S
C1593      C1594   1.404       .  A
C1593      H1605   1.083       .  S
C1594      H1606   1.083       .  S
C1595      C1596   1.219       .  T
C1596      C1597   1.461       .  S
C1597      C1598   1.404       .  A
C1597      C1602   1.404       .  A
C1598      C1599   1.408       .  A
C1598      H1607   1.083       .  S
C1599      C1600   1.411       .  A
C1599      H1608   1.083       .  S
C1600      C1601   1.410       .  A
C1601      C1602   1.406       .  A
C1601      H1609   1.083       .  S
C1602      H1610   1.083       .  S
C1611      C1612   1.408       .  A
C1611      C1616   1.408       .  A
C1612      C1613   1.399       .  A
C1612      H2357   1.083       .  S
C1613      C1614   1.399       .  A
C1613      H1626   1.084       .  S
C1614      C1615   1.400       .  A
C1614      C1617   1.442       .  S
C1615      C1616   1.400       .  A
C1615      H1627   1.083       .  S
C1616      H1628   1.083       .  S
C1617      C1618   1.207       .  T
C1618      C1619   1.442       .  S
C1619      C1620   1.399       .  A
C1619      C1624   1.401       .  A
C1620      C1621   1.398       .  A
C1620      H1629   1.083       .  S
C1621      C1622   1.407       .  A
C1621      H1996   1.080       .  S
C1622      C1930   1.485   1_554  S
C1622      C1623   1.407       .  A
C1623      C1624   1.400       .  A
C1623      H1631   1.083       .  S
C1624      H1632   1.083       .  S
H1625      C2344   1.083   1_545  S
H1630      C1987   1.080       .  S
C1633      C1634   1.409       .  A
C1633      C1638   1.409       .  A
C1634      C1635   1.405       .  A
C1634      H1647   1.083       .  S
C1635      C1636   1.403       .  A
C1635      H1648   1.083       .  S
C1636      C1637   1.404       .  A
C1636      C1639   1.459       .  S
C1637      C1638   1.406       .  A
C1637      H1649   1.083       .  S
C1638      H1650   1.083       .  S
C1639      C1640   1.218       .  T
C1640      C1641   1.459       .  S
C1641      C1642   1.404       .  A
C1641      C1646   1.403       .  A
C1642      C1643   1.406       .  A
C1642      H1651   1.083       .  S
C1643      C1644   1.410       .  A
C1643      H1652   1.083       .  S
C1644      C1645   1.410       .  A
C1645      C1646   1.406       .  A
C1645      H1653   1.083       .  S
C1646      H1654   1.083       .  S
C1655      C1656   1.407       .  A
C1655      C1660   1.408       .  A
C1656      C1657   1.400       .  A
C1656      H1669   1.081       .  S
C1657      C1658   1.400       .  A
C1657      H1670   1.084       .  S
C1658      C1659   1.401       .  A
C1658      C1661   1.447       .  S
C1659      C1660   1.403       .  A
C1659      H1671   1.083       .  S
C1660      H1672   1.083       .  S
C1661      C1662   1.210       .  T
C1662      C1663   1.447       .  S
C1663      C1664   1.402       .  A
C1663      C1668   1.400       .  A
C1664      C1665   1.403       .  A
C1664      H1673   1.083       .  S
C1665      C1666   1.409       .  A
C1665      H2406   1.083       .  S
C1666      C1667   1.408       .  A
C1667      C1668   1.400       .  A
C1667      H1675   1.083       .  S
C1668      H1676   1.083       .  S
H1674      C2397   1.083       .  S
C1677      C1872   1.493       .  S
C1677      C1678   1.409       .  A
C1677      C2048   1.409       .  A
C1678      C1679   1.405       .  A
C1678      H1691   1.082       .  S
C1679      C1680   1.403       .  A
C1679      H1692   1.083       .  S
C1680      C1681   1.401       .  A
C1680      C1683   1.453       .  S
C1681      C2048   1.402       .  A
C1681      H1693   1.083       .  S
C1682      C2043   1.409       .  A
C1682      C2047   1.402       .  A
C1682      H1694   1.083       .  S
C1683      C1684   1.214       .  T
C1684      C1685   1.454       .  S
C1685      C1686   1.402       .  A
C1685      C1690   1.402       .  A
C1686      C1687   1.404       .  A
C1686      H1695   1.083       .  S
C1687      C1688   1.409       .  A
C1687      H2428   1.083       .  S
C1688      C1689   1.409       .  A
C1689      C1690   1.404       .  A
C1689      H1697   1.083       .  S
C1690      H1698   1.083       .  S
H1696      C2419   1.083       .  S
C1699      C1700   1.409       .  A
C1699      C1704   1.408       .  A
C1700      C1701   1.404       .  A
C1700      H1713   1.083       .  S
C1701      C1702   1.402       .  A
C1701      H1714   1.083       .  S
C1702      C1703   1.405       .  A
C1702      C1705   1.459       .  S
C1703      C1704   1.407       .  A
C1703      H1715   1.083       .  S
C1704      H1716   1.083       .  S
C1705      C1706   1.218       .  T
C1706      C1707   1.459       .  S
C1707      C1708   1.404       .  A
C1707      C1712   1.402       .  A
C1708      C1709   1.408       .  A
C1708      H1717   1.083       .  S
C1709      C1710   1.410       .  A
C1709      H1718   1.083       .  S
C1710      C1711   1.410       .  A
C1711      C1712   1.405       .  A
C1711      H1719   1.083       .  S
C1712      H1720   1.083       .  S
C1721      C1722   1.408       .  A
C1721      C1726   1.409       .  A
C1722      C1723   1.402       .  A
C1723      C1724   1.402       .  A
C1723      H1736   1.083       .  S
C1724      C1725   1.400       .  A
C1724      C1727   1.447       .  S
C1725      C1726   1.401       .  A
C1725      H1737   1.083       .  S
C1726      H1738   1.083       .  S
C1727      C1728   1.210       .  T
C1728      C1729   1.447       .  S
C1729      C1730   1.402       .  A
C1729      C1734   1.400       .  A
C1730      C1731   1.402       .  A
C1730      H1739   1.083       .  S
C1731      C1732   1.407       .  A
C1731      H1740   1.082       .  S
C1732      C1733   1.408       .  A
C1733      C1734   1.400       .  A
C1733      H1741   1.083       .  S
C1734      H1742   1.084       .  S
C1743      C1744   1.411       .  A
C1743      C1748   1.411       .  A
C1744      C1745   1.407       .  A
C1744      H1757   1.083       .  S
C1745      C1746   1.404       .  A
C1745      H1758   1.083       .  S
C1746      C1747   1.405       .  A
C1746      C1749   1.465       .  S
C1747      C1748   1.411       .  A
C1747      H1759   1.083       .  S
C1748      H1760   1.083       .  S
C1749      C1750   1.221       .  T
C1750      C1751   1.465       .  S
C1751      C1752   1.406       .  A
C1751      C1756   1.403       .  A
C1752      C1753   1.410       .  A
C1752      H1761   1.083       .  S
C1753      C1754   1.409       .  A
C1753      H1762   1.083       .  S
C1754      C1755   1.409       .  A
C1755      C1756   1.406       .  A
C1755      H1763   1.083       .  S
C1756      H1764   1.083       .  S
C1765      C1766   1.410       .  A
C1765      C1770   1.409       .  A
C1766      C1767   1.401       .  A
C1766      H1779   1.083       .  S
C1767      C1768   1.400       .  A
C1767      H1780   1.084       .  S
C1768      C1769   1.406       .  A
C1768      C1771   1.457       .  S
C1769      C1770   1.410       .  A
C1769      H1781   1.083       .  S
C1770      H1782   1.083       .  S
C1771      C1772   1.216       .  T
C1772      C1773   1.457       .  S
C1773      C1774   1.403       .  A
C1773      C1778   1.403       .  A
C1774      C1775   1.406       .  A
C1774      H1783   1.083       .  S
C1775      C1776   1.411       .  A
C1775      H1784   1.083       .  S
C1776      C1777   1.409       .  A
C1777      C1778   1.405       .  A
C1777      H1785   1.083       .  S
C1778      H1786   1.083       .  S
C1787      C1788   1.410       .  A
C1787      C1792   1.408       .  A
C1788      C1789   1.404       .  A
C1788      H1801   1.083       .  S
C1789      C1790   1.402       .  A
C1789      H1802   1.083       .  S
C1790      C1791   1.407       .  A
C1790      C1793   1.463       .  S
C1791      C1792   1.411       .  A
C1791      H1803   1.083       .  S
C1792      H1804   1.082       .  S
C1793      C1794   1.220       .  T
C1794      C1795   1.464       .  S
C1795      C1796   1.404       .  A
C1795      C1800   1.404       .  A
C1796      C1797   1.408       .  A
C1796      H1805   1.083       .  S
C1797      C1798   1.411       .  A
C1797      H1806   1.083       .  S
C1798      C1799   1.411       .  A
C1799      C1800   1.408       .  A
C1799      H1807   1.083       .  S
C1800      H1808   1.083       .  S
C1809      C1810   1.411       .  A
C1809      C1814   1.409       .  A
C1810      C1811   1.406       .  A
C1810      H1823   1.083       .  S
C1811      C1812   1.402       .  A
C1811      H1824   1.083       .  S
C1812      C1813   1.404       .  A
C1812      C1815   1.458       .  S
C1813      C1814   1.406       .  A
C1813      H1825   1.083       .  S
C1814      H1826   1.083       .  S
C1815      C1816   1.217       .  T
C1816      C1817   1.458       .  S
C1817      C1818   1.405       .  A
C1817      C1822   1.402       .  A
C1818      C1819   1.408       .  A
C1818      H1827   1.083       .  S
C1819      C1820   1.408       .  A
C1819      H1828   1.082       .  S
C1820      C1821   1.409       .  A
C1821      C1822   1.404       .  A
C1821      H1829   1.083       .  S
C1822      H1830   1.083       .  S
O1831     Ni1839   1.942       .  S
O1831      C1841   1.286       .  A
O1832     Ni1839   1.939       .  S
O1832      C1842   1.286       .  A
O1833     Ni1839   1.929       .  S
O1833      C1843   1.283       .  A
O1834     Ni1839   1.928       .  S
O1834      C1844   1.283       .  A
O1835     Ni1840   1.933       .  S
O1835      C1844   1.285       .  A
O1836     Ni1840   1.934       .  S
O1836      C1843   1.285       .  A
O1837     Ni1840   1.934       .  S
O1837      C1842   1.285       .  A
O1838     Ni1840   1.934       .  S
O1838      C1841   1.285       .  A
Ni1839    Ni1840   2.380       .  S
C1841      C2109   1.505       .  S
C1842      C2164   1.503       .  S
C1843      C2175   1.498       .  S
C1844      C2142   1.497       .  S
N1845      C1846   1.364       .  A
N1845      C1861   1.448       .  S
C1846      C2065   1.493       .  S
C1846      C1847   1.385       .  A
C1847      H1850   1.083       .  S
C1848      C1849   1.382       .  A
C1848      H1851   1.082       .  S
C1849      C2098   1.488       .  S
N1852      C1853   1.371       .  A
N1852      C1859   1.463       .  S
C1853      C2120   1.498       .  S
C1853      C1854   1.384       .  A
C1854      H1857   1.083       .  S
C1855      C1856   1.382       .  A
C1855      H1858   1.082       .  S
C1856      C2131   1.496       .  S
C1859      C1860   1.416       .  A
C1860      H1865   1.083       .  S
C1861      C1862   1.400       .  A
C1862      C1863   1.407       .  A
C1862      H1866   1.081       .  S
C1863      N1868   1.444       .  S
C1863      C1864   1.423       .  A
C1864      H1867   1.083       .  S
N1868      C1872   1.360   1_556  A
N1868      C1869   1.359       .  A
C1869      C2021   1.488       .  S
C1869      C1870   1.382       .  A
C1870      C1871   1.370       .  A
C1870      H1873   1.082       .  S
C1871      C1872   1.385   1_556  A
C1871      H1874   1.082   1_556  S
O1875     Ni1883   1.931       .  S
O1875      C2617   1.284   1_545  A
O1876     Ni1883   1.928       .  S
O1876      C1886   1.283       .  A
O1877     Ni1883   1.920       .  S
O1877      C1887   1.282       .  A
O1878     Ni1883   1.917       .  S
O1878      C2620   1.282   1_545  A
O1879     Ni1884   1.922       .  S
O1879      C1888   1.282       .  A
O1880     Ni1884   1.924       .  S
O1880      C2619   1.283       .  A
O1881     Ni1884   1.930       .  S
O1881      C2618   1.284       .  A
O1882     Ni1884   1.933       .  S
O1882      C1885   1.285       .  A
Ni1883    Ni2616   2.383   1_545  S
Ni1884    Ni2615   2.383       .  S
C1885      O2607   1.284       .  A
C1885      C2010   1.498       .  S
C1886      O2613   1.284   1_545  A
C1886      C2054   1.493       .  S
C1887      O2612   1.283   1_545  A
C1887      C2032   1.488       .  S
C1888      O2610   1.282       .  A
C1888      C1977   1.484       .  S
O1889     Ni1897   1.936       .  S
O1889      C1899   1.285       .  A
O1890     Ni1897   1.937   1_455  S
O1891     Ni1897   1.917   1_455  S
O1892     Ni1897   1.919       .  S
O1892      C1902   1.282       .  A
O1893     Ni1898   1.924       .  S
O1894     Ni1898   1.925       .  S
O1894      C1901   1.283       .  A
O1895     Ni1898   1.932       .  S
O1895      C1900   1.284       .  A
O1896     Ni1898   1.930       .  S
C1899      C2076   1.499       .  S
C1900      C1966   1.501       .  S
C1901      C1944   1.486       .  S
C1902      C2087   1.487       .  S
N1903      C1907   1.369       .  A
N1903      C1910   1.464       .  S
C1904      C2153   1.497       .  S
C1904      C1905   1.381       .  A
C1905      H1908   1.083       .  S
C1906      C1907   1.384       .  A
C1906      H1909   1.083       .  S
C1907      C2186   1.493       .  S
C1910      C1915   1.413       .  A
C1911      C1912   1.412       .  A
C1911      H1916   1.083       .  S
C1912      N1926   1.450       .  S
C1913      C1914   1.406       .  A
C1914      N1919   1.447       .  S
C1914      C1915   1.423       .  A
C1915      H1918   1.083       .  S
N1919      C1920   1.363       .  A
C1920      C1955   1.503       .  S
C1920      C1921   1.391       .  A
C1921      H1924   1.082       .  S
C1922      C1923   1.377       .  A
C1922      H1925   1.082       .  S
C1923      C1933   1.481       .  S
N1926      C1930   1.358       .  A
N1926      C1927   1.365       .  A
C1927      C1999   1.494       .  S
C1927      C1928   1.387       .  A
C1928      C1929   1.368       .  A
C1928      H1931   1.083       .  S
C1929      C1930   1.379       .  A
C1929      H1932   1.082       .  S
C1933      C1934   1.405       .  A
C1933      C1938   1.406       .  A
C1934      C1935   1.403       .  A
C1934      H1947   1.083       .  S
C1935      C1936   1.403       .  A
C1935      H1948   1.083       .  S
C1936      C1937   1.398       .  A
C1936      C1939   1.443       .  S
C1937      C1938   1.395       .  A
C1937      H1949   1.084       .  S
C1938      H1950   1.081       .  S
C1939      C1940   1.208       .  T
C1940      C1941   1.443       .  S
C1941      C1942   1.401       .  A
C1941      C1946   1.399       .  A
C1942      C1943   1.401       .  A
C1942      H1951   1.083       .  S
C1943      C1944   1.408       .  A
C1943      H1952   1.083       .  S
C1944      C1945   1.408       .  A
C1945      C1946   1.399       .  A
C1946      H1954   1.084       .  S
C1955      C1956   1.411       .  A
C1955      C1960   1.411       .  A
C1956      C1957   1.409       .  A
C1956      H1969   1.082       .  S
C1957      C1958   1.405       .  A
C1957      H1970   1.083       .  S
C1958      C1959   1.402       .  A
C1958      C1961   1.461       .  S
C1959      C1960   1.404       .  A
C1959      H1971   1.083       .  S
C1960      H1972   1.083       .  S
C1961      C1962   1.219       .  T
C1962      C1963   1.461       .  S
C1963      C1964   1.404       .  A
C1963      C1968   1.404       .  A
C1964      C1965   1.408       .  A
C1964      H1973   1.083       .  S
C1965      C1966   1.411       .  A
C1965      H1974   1.083       .  S
C1966      C1967   1.410       .  A
C1967      C1968   1.406       .  A
C1967      H1975   1.083       .  S
C1968      H1976   1.083       .  S
C1977      C1978   1.408       .  A
C1977      C1982   1.408       .  A
C1978      C1979   1.399       .  A
C1978      H2723   1.083       .  S
C1979      C1980   1.399       .  A
C1979      H1992   1.084       .  S
C1980      C1981   1.400       .  A
C1980      C1983   1.442       .  S
C1981      C1982   1.400       .  A
C1981      H1993   1.083       .  S
C1982      H1994   1.083       .  S
C1983      C1984   1.207       .  T
C1984      C1985   1.442       .  S
C1985      C1986   1.399       .  A
C1985      C1990   1.401       .  A
C1986      C1987   1.398       .  A
C1986      H1995   1.083       .  S
C1987      C1988   1.407       .  A
C1988      C1989   1.407       .  A
C1989      C1990   1.400       .  A
C1989      H1997   1.083       .  S
C1990      H1998   1.083       .  S
H1991      C2710   1.083   1_545  S
C1999      C2000   1.409       .  A
C1999      C2004   1.409       .  A
C2000      C2001   1.405       .  A
C2000      H2013   1.083       .  S
C2001      C2002   1.403       .  A
C2001      H2014   1.083       .  S
C2002      C2003   1.404       .  A
C2002      C2005   1.459       .  S
C2003      C2004   1.406       .  A
C2003      H2015   1.083       .  S
C2004      H2016   1.083       .  S
C2005      C2006   1.218       .  T
C2006      C2007   1.459       .  S
C2007      C2008   1.404       .  A
C2007      C2012   1.403       .  A
C2008      C2009   1.406       .  A
C2008      H2017   1.083       .  S
C2009      C2010   1.410       .  A
C2009      H2018   1.083       .  S
C2010      C2011   1.410       .  A
C2011      C2012   1.406       .  A
C2011      H2019   1.083       .  S
C2012      H2020   1.083       .  S
C2021      C2022   1.407       .  A
C2021      C2026   1.408       .  A
C2022      C2023   1.400       .  A
C2022      H2035   1.081       .  S
C2023      C2024   1.400       .  A
C2023      H2036   1.084       .  S
C2024      C2025   1.401       .  A
C2024      C2027   1.447       .  S
C2025      C2026   1.403       .  A
C2025      H2037   1.083       .  S
C2026      H2038   1.083       .  S
C2027      C2028   1.210       .  T
C2028      C2029   1.447       .  S
C2029      C2030   1.402       .  A
C2029      C2034   1.400       .  A
C2030      C2031   1.403       .  A
C2030      H2039   1.083       .  S
C2031      C2032   1.409       .  A
C2031      H2772   1.083       .  S
C2032      C2033   1.408       .  A
C2033      C2034   1.400       .  A
C2033      H2041   1.083       .  S
C2034      H2042   1.083       .  S
H2040      C2763   1.083       .  S
C2043      C2044   1.409       .  A
C2044      C2045   1.405       .  A
C2044      H2057   1.082       .  S
C2045      C2046   1.403       .  A
C2045      H2058   1.083       .  S
C2046      C2047   1.401       .  A
C2046      C2049   1.453       .  S
C2047      H2059   1.083       .  S
C2048      H2060   1.083       .  S
C2049      C2050   1.214       .  T
C2050      C2051   1.454       .  S
C2051      C2052   1.402       .  A
C2051      C2056   1.402       .  A
C2052      C2053   1.404       .  A
C2052      H2061   1.083       .  S
C2053      C2054   1.409       .  A
C2053      H2794   1.083       .  S
C2054      C2055   1.409       .  A
C2055      C2056   1.404       .  A
C2055      H2063   1.083       .  S
C2056      H2064   1.083       .  S
H2062      C2785   1.083       .  S
C2065      C2066   1.409       .  A
C2065      C2070   1.408       .  A
C2066      C2067   1.404       .  A
C2066      H2079   1.083       .  S
C2067      C2068   1.402       .  A
C2067      H2080   1.083       .  S
C2068      C2069   1.405       .  A
C2068      C2071   1.459       .  S
C2069      C2070   1.407       .  A
C2069      H2081   1.083       .  S
C2070      H2082   1.083       .  S
C2071      C2072   1.218       .  T
C2072      C2073   1.459       .  S
C2073      C2074   1.404       .  A
C2073      C2078   1.402       .  A
C2074      C2075   1.408       .  A
C2074      H2083   1.083       .  S
C2075      C2076   1.410       .  A
C2075      H2084   1.083       .  S
C2076      C2077   1.410       .  A
C2077      C2078   1.405       .  A
C2077      H2085   1.083       .  S
C2078      H2086   1.083       .  S
C2087      C2088   1.408       .  A
C2087      C2092   1.409       .  A
C2088      C2089   1.402       .  A
C2089      C2090   1.402       .  A
C2089      H2102   1.083       .  S
C2090      C2091   1.400       .  A
C2090      C2093   1.447       .  S
C2091      C2092   1.401       .  A
C2091      H2103   1.083       .  S
C2092      H2104   1.083       .  S
C2093      C2094   1.210       .  T
C2094      C2095   1.447       .  S
C2095      C2096   1.402       .  A
C2095      C2100   1.400       .  A
C2096      C2097   1.402       .  A
C2096      H2105   1.083       .  S
C2097      C2098   1.407       .  A
C2097      H2106   1.082       .  S
C2098      C2099   1.408       .  A
C2099      C2100   1.400       .  A
C2099      H2107   1.083       .  S
C2100      H2108   1.084       .  S
C2109      C2110   1.411       .  A
C2109      C2114   1.411       .  A
C2110      C2111   1.407       .  A
C2110      H2123   1.083       .  S
C2111      C2112   1.404       .  A
C2111      H2124   1.083       .  S
C2112      C2113   1.405       .  A
C2112      C2115   1.465       .  S
C2113      C2114   1.411       .  A
C2113      H2125   1.083       .  S
C2114      H2126   1.083       .  S
C2115      C2116   1.221       .  T
C2116      C2117   1.465       .  S
C2117      C2118   1.406       .  A
C2117      C2122   1.403       .  A
C2118      C2119   1.410       .  A
C2118      H2127   1.083       .  S
C2119      C2120   1.409       .  A
C2119      H2128   1.083       .  S
C2120      C2121   1.409       .  A
C2121      C2122   1.406       .  A
C2121      H2129   1.083       .  S
C2122      H2130   1.083       .  S
C2131      C2132   1.410       .  A
C2131      C2136   1.409       .  A
C2132      C2133   1.401       .  A
C2132      H2145   1.083       .  S
C2133      C2134   1.400       .  A
C2133      H2146   1.084       .  S
C2134      C2135   1.406       .  A
C2134      C2137   1.457       .  S
C2135      C2136   1.410       .  A
C2135      H2147   1.083       .  S
C2136      H2148   1.083       .  S
C2137      C2138   1.216       .  T
C2138      C2139   1.457       .  S
C2139      C2140   1.403       .  A
C2139      C2144   1.403       .  A
C2140      C2141   1.406       .  A
C2140      H2149   1.083       .  S
C2141      C2142   1.411       .  A
C2141      H2150   1.083       .  S
C2142      C2143   1.409       .  A
C2143      C2144   1.405       .  A
C2143      H2151   1.083       .  S
C2144      H2152   1.083       .  S
C2153      C2154   1.410       .  A
C2153      C2158   1.408       .  A
C2154      C2155   1.404       .  A
C2154      H2167   1.083       .  S
C2155      C2156   1.402       .  A
C2155      H2168   1.083       .  S
C2156      C2157   1.407       .  A
C2156      C2159   1.463       .  S
C2157      C2158   1.411       .  A
C2157      H2169   1.083       .  S
C2158      H2170   1.082       .  S
C2159      C2160   1.220       .  T
C2160      C2161   1.464       .  S
C2161      C2162   1.404       .  A
C2161      C2166   1.404       .  A
C2162      C2163   1.408       .  A
C2162      H2171   1.083       .  S
C2163      C2164   1.411       .  A
C2163      H2172   1.083       .  S
C2164      C2165   1.411       .  A
C2165      C2166   1.408       .  A
C2165      H2173   1.083       .  S
C2166      H2174   1.083       .  S
C2175      C2176   1.411       .  A
C2175      C2180   1.409       .  A
C2176      C2177   1.406       .  A
C2176      H2189   1.083       .  S
C2177      C2178   1.402       .  A
C2177      H2190   1.083       .  S
C2178      C2179   1.404       .  A
C2178      C2181   1.458       .  S
C2179      C2180   1.406       .  A
C2179      H2191   1.083       .  S
C2180      H2192   1.083       .  S
C2181      C2182   1.217       .  T
C2182      C2183   1.458       .  S
C2183      C2184   1.405       .  A
C2183      C2188   1.402       .  A
C2184      C2185   1.408       .  A
C2184      H2193   1.083       .  S
C2185      C2186   1.408       .  A
C2185      H2194   1.082       .  S
C2186      C2187   1.409       .  A
C2187      C2188   1.404       .  A
C2187      H2195   1.083       .  S
C2188      H2196   1.083       .  S
O2197     Ni2205   1.942       .  S
O2197      C2207   1.286       .  A
O2198     Ni2205   1.939       .  S
O2198      C2208   1.286       .  A
O2199     Ni2205   1.929       .  S
O2199      C2209   1.283       .  A
O2200     Ni2205   1.928       .  S
O2200      C2210   1.283       .  A
O2201     Ni2206   1.933       .  S
O2201      C2210   1.285       .  A
O2202     Ni2206   1.934       .  S
O2202      C2209   1.285       .  A
O2203     Ni2206   1.934       .  S
O2203      C2208   1.285       .  A
O2204     Ni2206   1.934       .  S
O2204      C2207   1.285       .  A
Ni2205    Ni2206   2.380       .  S
C2207      C2475   1.505       .  S
C2208      C2530   1.503       .  S
C2209      C2541   1.498       .  S
C2210      C2508   1.497       .  S
N2211      C2581   1.361       .  A
N2211      C2212   1.364       .  A
N2211      C2227   1.448       .  S
C2212      C2431   1.493       .  S
C2212      C2213   1.385       .  A
C2213      C2580   1.367       .  A
C2213      H2216   1.083       .  S
C2214      C2579   1.367       .  A
C2214      C2215   1.382   1_556  A
C2214      H2217   1.082   1_556  S
C2215      C2464   1.488       .  S
C2215      N2577   1.361   1_554  A
N2218      C2588   1.368       .  A
N2218      C2219   1.371   1_556  A
N2218      C2225   1.463       .  S
C2219      C2486   1.498       .  S
C2219      C2220   1.384       .  A
C2220      C2587   1.363   1_554  A
C2220      H2223   1.083       .  S
C2221      C2586   1.363       .  A
C2221      C2222   1.382       .  A
C2221      H2224   1.082       .  S
C2222      C2497   1.496       .  S
C2222      N2584   1.368       .  A
C2225      C2226   1.416       .  A
C2225      C2596   1.408       .  A
C2226      C2593   1.413       .  A
C2226      H2231   1.083       .  S
C2227      C2592   1.413       .  A
C2227      C2228   1.400       .  A
C2228      C2229   1.407       .  A
C2228      H2232   1.081       .  S
C2229      N2234   1.444       .  S
C2229      C2230   1.423       .  A
C2230      C2591   1.408       .  A
C2230      H2233   1.083       .  S
N2234      C2238   1.360       .  A
N2234      C2235   1.359       .  A
C2235      C2387   1.488       .  S
C2235      C2236   1.382       .  A
C2236      C2237   1.370       .  A
C2236      H2239   1.082       .  S
C2237      C2238   1.385       .  A
C2237      H2240   1.082       .  S
C2238      C2775   1.493       .  S
O2241     Ni2249   1.931       .  S
O2242     Ni2249   1.928       .  S
O2242      C2252   1.283       .  A
O2243     Ni2249   1.920       .  S
O2243      C2253   1.282       .  A
O2244     Ni2249   1.917       .  S
O2245     Ni2250   1.922       .  S
O2245      C2254   1.282       .  A
O2246     Ni2250   1.924       .  S
O2247     Ni2250   1.930       .  S
O2248     Ni2250   1.933       .  S
O2248      C2251   1.285       .  A
C2251      C2376   1.498       .  S
C2252      C2420   1.493       .  S
C2253      C2398   1.488       .  S
C2254      C2343   1.484       .  S
O2255     Ni2263   1.936       .  S
O2255      C2265   1.285       .  A
O2256     Ni2263   1.937   1_455  S
O2257     Ni2263   1.917   1_455  S
O2258     Ni2263   1.919       .  S
O2258      C2268   1.282       .  A
O2259     Ni2264   1.924       .  S
O2260     Ni2264   1.925       .  S
O2260      C2267   1.283       .  A
O2261     Ni2264   1.932       .  S
O2261      C2266   1.284       .  A
O2262     Ni2264   1.930       .  S
C2265      C2442   1.499       .  S
C2266      C2332   1.501       .  S
C2267      C2310   1.486       .  S
C2268      C2453   1.487       .  S
N2269      C2273   1.369   1_556  A
N2269      C2636   1.372       .  A
N2269      C2276   1.464       .  S
C2270      C2519   1.497       .  S
C2270      N2635   1.372       .  A
C2270      C2271   1.381       .  A
C2271      C2638   1.362       .  A
C2271      H2274   1.083       .  S
C2272      C2637   1.362   1_554  A
C2272      C2273   1.384       .  A
C2272      H2275   1.083       .  S
C2273      C2552   1.493       .  S
C2276      C2643   1.417       .  A
C2276      C2281   1.413       .  A
C2277      C2642   1.417       .  A
C2277      C2278   1.412       .  A
C2277      H2282   1.083       .  S
C2278      N2292   1.450       .  S
C2278      C2645   1.401       .  A
C2279      C2644   1.401       .  A
C2279      C2280   1.406       .  A
C2279      H2649   1.077       .  S
C2280      N2285   1.447   1_556  S
C2280      C2281   1.423       .  A
C2281      H2284   1.083   1_556  S
H2283      C2645   1.077       .  S
N2285      C2655   1.355   1_554  A
N2285      C2286   1.363       .  A
C2286      C2321   1.503       .  S
C2286      C2287   1.391       .  A
C2287      C2654   1.372   1_554  A
C2287      H2290   1.082       .  S
C2288      C2653   1.372       .  A
C2288      C2289   1.377       .  A
C2288      H2291   1.082       .  S
C2289      C2299   1.481       .  S
C2289      N2651   1.355       .  A
N2292      C2296   1.358       .  A
N2292      C2293   1.365       .  A
C2293      C2365   1.494       .  S
C2293      C2294   1.387       .  A
C2294      C2295   1.368       .  A
C2294      H2297   1.083       .  S
C2295      C2296   1.379       .  A
C2295      H2298   1.082       .  S
C2296      C2720   1.485       .  S
C2299      C2300   1.405       .  A
C2299      C2304   1.406       .  A
C2300      C2301   1.403       .  A
C2300      H2313   1.083       .  S
C2301      C2302   1.403       .  A
C2301      H2314   1.083       .  S
C2302      C2303   1.398       .  A
C2302      C2305   1.443       .  S
C2303      C2304   1.395       .  A
C2303      H2315   1.084       .  S
C2304      H2316   1.081       .  S
C2305      C2306   1.208       .  T
C2306      C2307   1.443       .  S
C2307      C2308   1.401       .  A
C2307      C2312   1.399       .  A
C2308      C2309   1.401       .  A
C2308      H2317   1.083       .  S
C2309      C2310   1.408       .  A
C2309      H2318   1.083       .  S
C2310      C2311   1.408       .  A
C2311      C2312   1.399       .  A
C2312      H2320   1.084       .  S
C2321      C2322   1.411       .  A
C2321      C2326   1.411       .  A
C2322      C2323   1.409       .  A
C2322      H2335   1.082       .  S
C2323      C2324   1.405       .  A
C2323      H2336   1.083       .  S
C2324      C2325   1.402       .  A
C2324      C2327   1.461       .  S
C2325      C2326   1.404       .  A
C2325      H2337   1.083       .  S
C2326      H2338   1.083       .  S
C2327      C2328   1.219       .  T
C2328      C2329   1.461       .  S
C2329      C2330   1.404       .  A
C2329      C2334   1.404       .  A
C2330      C2331   1.408       .  A
C2330      H2339   1.083       .  S
C2331      C2332   1.411       .  A
C2331      H2340   1.083       .  S
C2332      C2333   1.410       .  A
C2333      C2334   1.406       .  A
C2333      H2341   1.083       .  S
C2334      H2342   1.083       .  S
C2343      C2344   1.408       .  A
C2343      C2348   1.408       .  A
C2344      C2345   1.399       .  A
C2345      C2346   1.399       .  A
C2345      H2358   1.084       .  S
C2346      C2347   1.400       .  A
C2346      C2349   1.442       .  S
C2347      C2348   1.400       .  A
C2347      H2359   1.083       .  S
C2348      H2360   1.083       .  S
C2349      C2350   1.207       .  T
C2350      C2351   1.442       .  S
C2351      C2352   1.399       .  A
C2351      C2356   1.401       .  A
C2352      C2353   1.398       .  A
C2352      H2361   1.083       .  S
C2353      C2354   1.407       .  A
C2353      H2728   1.080       .  S
C2354      C2662   1.485   1_554  S
C2354      C2355   1.407       .  A
C2355      C2356   1.400       .  A
C2355      H2363   1.083       .  S
C2356      H2364   1.083       .  S
H2362      C2719   1.080       .  S
C2365      C2366   1.409       .  A
C2365      C2370   1.409       .  A
C2366      C2367   1.405       .  A
C2366      H2379   1.083       .  S
C2367      C2368   1.403       .  A
C2367      H2380   1.083       .  S
C2368      C2369   1.404       .  A
C2368      C2371   1.459       .  S
C2369      C2370   1.406       .  A
C2369      H2381   1.083       .  S
C2370      H2382   1.083       .  S
C2371      C2372   1.218       .  T
C2372      C2373   1.459       .  S
C2373      C2374   1.404       .  A
C2373      C2378   1.403       .  A
C2374      C2375   1.406       .  A
C2374      H2383   1.083       .  S
C2375      C2376   1.410       .  A
C2375      H2384   1.083       .  S
C2376      C2377   1.410       .  A
C2377      C2378   1.406       .  A
C2377      H2385   1.083       .  S
C2378      H2386   1.083       .  S
C2387      C2388   1.407       .  A
C2387      C2392   1.408       .  A
C2388      C2389   1.400       .  A
C2388      H2401   1.081       .  S
C2389      C2390   1.400       .  A
C2389      H2402   1.084       .  S
C2390      C2391   1.401       .  A
C2390      C2393   1.447       .  S
C2391      C2392   1.403       .  A
C2391      H2403   1.083       .  S
C2392      H2404   1.083       .  S
C2393      C2394   1.210       .  T
C2394      C2395   1.447       .  S
C2395      C2396   1.402       .  A
C2395      C2400   1.400       .  A
C2396      C2397   1.403       .  A
C2396      H2405   1.083       .  S
C2397      C2398   1.409       .  A
C2398      C2399   1.408       .  A
C2399      C2400   1.400       .  A
C2399      H2407   1.083       .  S
C2400      H2408   1.083       .  S
C2409      C2604   1.493       .  S
C2409      C2410   1.409       .  A
C2409      C2780   1.409       .  A
C2410      C2411   1.405       .  A
C2410      H2423   1.082       .  S
C2411      C2412   1.403       .  A
C2411      H2424   1.083       .  S
C2412      C2413   1.401       .  A
C2412      C2415   1.453       .  S
C2413      C2780   1.402       .  A
C2413      H2425   1.083       .  S
C2414      C2775   1.409       .  A
C2414      C2779   1.402       .  A
C2414      H2426   1.083       .  S
C2415      C2416   1.214       .  T
C2416      C2417   1.454       .  S
C2417      C2418   1.402       .  A
C2417      C2422   1.402       .  A
C2418      C2419   1.404       .  A
C2418      H2427   1.083       .  S
C2419      C2420   1.409       .  A
C2420      C2421   1.409       .  A
C2421      C2422   1.404       .  A
C2421      H2429   1.083       .  S
C2422      H2430   1.083       .  S
C2431      C2432   1.409       .  A
C2431      C2436   1.408       .  A
C2432      C2433   1.404       .  A
C2432      H2445   1.083       .  S
C2433      C2434   1.402       .  A
C2433      H2446   1.083       .  S
C2434      C2435   1.405       .  A
C2434      C2437   1.459       .  S
C2435      C2436   1.407       .  A
C2435      H2447   1.083       .  S
C2436      H2448   1.083       .  S
C2437      C2438   1.218       .  T
C2438      C2439   1.459       .  S
C2439      C2440   1.404       .  A
C2439      C2444   1.402       .  A
C2440      C2441   1.408       .  A
C2440      H2449   1.083       .  S
C2441      C2442   1.410       .  A
C2441      H2450   1.083       .  S
C2442      C2443   1.410       .  A
C2443      C2444   1.405       .  A
C2443      H2451   1.083       .  S
C2444      H2452   1.083       .  S
C2453      C2454   1.408       .  A
C2453      C2458   1.409       .  A
C2454      C2455   1.402       .  A
C2455      C2456   1.402       .  A
C2455      H2468   1.083       .  S
C2456      C2457   1.400       .  A
C2456      C2459   1.447       .  S
C2457      C2458   1.401       .  A
C2457      H2469   1.083       .  S
C2458      H2470   1.083       .  S
C2459      C2460   1.210       .  T
C2460      C2461   1.447       .  S
C2461      C2462   1.402       .  A
C2461      C2466   1.400       .  A
C2462      C2463   1.402       .  A
C2462      H2471   1.083       .  S
C2463      C2464   1.407       .  A
C2463      H2472   1.082       .  S
C2464      C2465   1.408       .  A
C2465      C2466   1.400       .  A
C2465      H2473   1.083       .  S
C2466      H2474   1.084       .  S
C2475      C2476   1.411       .  A
C2475      C2480   1.411       .  A
C2476      C2477   1.407       .  A
C2476      H2489   1.083       .  S
C2477      C2478   1.404       .  A
C2477      H2490   1.083       .  S
C2478      C2479   1.405       .  A
C2478      C2481   1.465       .  S
C2479      C2480   1.411       .  A
C2479      H2491   1.083       .  S
C2480      H2492   1.083       .  S
C2481      C2482   1.221       .  T
C2482      C2483   1.465       .  S
C2483      C2484   1.406       .  A
C2483      C2488   1.403       .  A
C2484      C2485   1.410       .  A
C2484      H2493   1.083       .  S
C2485      C2486   1.409       .  A
C2485      H2494   1.083       .  S
C2486      C2487   1.409       .  A
C2487      C2488   1.406       .  A
C2487      H2495   1.083       .  S
C2488      H2496   1.083       .  S
C2497      C2498   1.410       .  A
C2497      C2502   1.409       .  A
C2498      C2499   1.401       .  A
C2498      H2511   1.083       .  S
C2499      C2500   1.400       .  A
C2499      H2512   1.084       .  S
C2500      C2501   1.406       .  A
C2500      C2503   1.457       .  S
C2501      C2502   1.410       .  A
C2501      H2513   1.083       .  S
C2502      H2514   1.083       .  S
C2503      C2504   1.216       .  T
C2504      C2505   1.457       .  S
C2505      C2506   1.403       .  A
C2505      C2510   1.403       .  A
C2506      C2507   1.406       .  A
C2506      H2515   1.083       .  S
C2507      C2508   1.411       .  A
C2507      H2516   1.083       .  S
C2508      C2509   1.409       .  A
C2509      C2510   1.405       .  A
C2509      H2517   1.083       .  S
C2510      H2518   1.083       .  S
C2519      C2520   1.410       .  A
C2519      C2524   1.408       .  A
C2520      C2521   1.404       .  A
C2520      H2533   1.083       .  S
C2521      C2522   1.402       .  A
C2521      H2534   1.083       .  S
C2522      C2523   1.407       .  A
C2522      C2525   1.463       .  S
C2523      C2524   1.411       .  A
C2523      H2535   1.083       .  S
C2524      H2536   1.082       .  S
C2525      C2526   1.220       .  T
C2526      C2527   1.464       .  S
C2527      C2528   1.404       .  A
C2527      C2532   1.404       .  A
C2528      C2529   1.408       .  A
C2528      H2537   1.083       .  S
C2529      C2530   1.411       .  A
C2529      H2538   1.083       .  S
C2530      C2531   1.411       .  A
C2531      C2532   1.408       .  A
C2531      H2539   1.083       .  S
C2532      H2540   1.083       .  S
C2541      C2542   1.411       .  A
C2541      C2546   1.409       .  A
C2542      C2543   1.406       .  A
C2542      H2555   1.083       .  S
C2543      C2544   1.402       .  A
C2543      H2556   1.083       .  S
C2544      C2545   1.404       .  A
C2544      C2547   1.458       .  S
C2545      C2546   1.406       .  A
C2545      H2557   1.083       .  S
C2546      H2558   1.083       .  S
C2547      C2548   1.217       .  T
C2548      C2549   1.458       .  S
C2549      C2550   1.405       .  A
C2549      C2554   1.402       .  A
C2550      C2551   1.408       .  A
C2550      H2559   1.083       .  S
C2551      C2552   1.408       .  A
C2551      H2560   1.082       .  S
C2552      C2553   1.409       .  A
C2553      C2554   1.404       .  A
C2553      H2561   1.083       .  S
C2554      H2562   1.083       .  S
O2563     Ni2571   1.942       .  S
O2563      C2573   1.286       .  A
O2564     Ni2571   1.939       .  S
O2564      C2574   1.286       .  A
O2565     Ni2571   1.929       .  S
O2565      C2575   1.283       .  A
O2566     Ni2571   1.928       .  S
O2566      C2576   1.283       .  A
O2567     Ni2572   1.933       .  S
O2567      C2576   1.285       .  A
O2568     Ni2572   1.934       .  S
O2568      C2575   1.285       .  A
O2569     Ni2572   1.934       .  S
O2569      C2574   1.285       .  A
O2570     Ni2572   1.934       .  S
O2570      C2573   1.285       .  A
Ni2571    Ni2572   2.380       .  S
C2573      C2841   1.505       .  S
C2574      C2896   1.503       .  S
C2575      C2907   1.498       .  S
C2576      C2874   1.497       .  S
N2577      C2578   1.364       .  A
N2577      C2593   1.448       .  S
C2578      C2797   1.493       .  S
C2578      C2579   1.385       .  A
C2579      H2582   1.083       .  S
C2580      C2581   1.382       .  A
C2580      H2583   1.082       .  S
C2581      C2830   1.488       .  S
N2584      C2585   1.371       .  A
N2584      C2591   1.463       .  S
C2585      C2852   1.498       .  S
C2585      C2586   1.384       .  A
C2586      H2589   1.083       .  S
C2587      C2588   1.382       .  A
C2587      H2590   1.082       .  S
C2588      C2863   1.496       .  S
C2591      C2592   1.416       .  A
C2592      H2597   1.083       .  S
C2593      C2594   1.400       .  A
C2594      C2595   1.407       .  A
C2594      H2598   1.081       .  S
C2595      N2600   1.444       .  S
C2595      C2596   1.423       .  A
C2596      H2599   1.083       .  S
N2600      C2604   1.360   1_556  A
N2600      C2601   1.359       .  A
C2601      C2753   1.488       .  S
C2601      C2602   1.383       .  A
C2602      C2603   1.370       .  A
C2602      H2605   1.082       .  S
C2603      C2604   1.385   1_556  A
C2603      H2606   1.082   1_556  S
O2607     Ni2615   1.931       .  S
O2608     Ni2615   1.928       .  S
O2608      C2618   1.283       .  A
O2609     Ni2615   1.920       .  S
O2609      C2619   1.282       .  A
O2610     Ni2615   1.917       .  S
O2611     Ni2616   1.922       .  S
O2611      C2620   1.282       .  A
O2612     Ni2616   1.924       .  S
O2613     Ni2616   1.930       .  S
O2614     Ni2616   1.933       .  S
O2614      C2617   1.285       .  A
C2617      C2742   1.498       .  S
C2618      C2786   1.493       .  S
C2619      C2764   1.488       .  S
C2620      C2709   1.484       .  S
O2621     Ni2629   1.936       .  S
O2621      C2631   1.285       .  A
O2622     Ni2629   1.937   1_455  S
O2623     Ni2629   1.917   1_455  S
O2624     Ni2629   1.919       .  S
O2624      C2634   1.282       .  A
O2625     Ni2630   1.924       .  S
O2626     Ni2630   1.925       .  S
O2626      C2633   1.283       .  A
O2627     Ni2630   1.932       .  S
O2627      C2632   1.284       .  A
O2628     Ni2630   1.930       .  S
C2631      C2808   1.499       .  S
C2632      C2698   1.501       .  S
C2633      C2676   1.486       .  S
C2634      C2819   1.487       .  S
N2635      C2639   1.369       .  A
N2635      C2642   1.464       .  S
C2636      C2885   1.497       .  S
C2636      C2637   1.381       .  A
C2637      H2640   1.083       .  S
C2638      C2639   1.384       .  A
C2638      H2641   1.083       .  S
C2639      C2918   1.493       .  S
C2642      C2647   1.413       .  A
C2643      C2644   1.412       .  A
C2643      H2648   1.083       .  S
C2644      N2658   1.450       .  S
C2645      C2646   1.406       .  A
C2646      N2651   1.447       .  S
C2646      C2647   1.423       .  A
C2647      H2650   1.083       .  S
N2651      C2652   1.363       .  A
C2652      C2687   1.503       .  S
C2652      C2653   1.391       .  A
C2653      H2656   1.082       .  S
C2654      C2655   1.377       .  A
C2654      H2657   1.082       .  S
C2655      C2665   1.481       .  S
N2658      C2662   1.358       .  A
N2658      C2659   1.365       .  A
C2659      C2731   1.494       .  S
C2659      C2660   1.387       .  A
C2660      C2661   1.368       .  A
C2660      H2663   1.083       .  S
C2661      C2662   1.379       .  A
C2661      H2664   1.082       .  S
C2665      C2666   1.405       .  A
C2665      C2670   1.406       .  A
C2666      C2667   1.403       .  A
C2666      H2679   1.083       .  S
C2667      C2668   1.403       .  A
C2667      H2680   1.083       .  S
C2668      C2669   1.398       .  A
C2668      C2671   1.443       .  S
C2669      C2670   1.395       .  A
C2669      H2681   1.084       .  S
C2670      H2682   1.081       .  S
C2671      C2672   1.208       .  T
C2672      C2673   1.443       .  S
C2673      C2674   1.401       .  A
C2673      C2678   1.399       .  A
C2674      C2675   1.401       .  A
C2674      H2683   1.083       .  S
C2675      C2676   1.408       .  A
C2675      H2684   1.083       .  S
C2676      C2677   1.408       .  A
C2677      C2678   1.399       .  A
C2678      H2686   1.084       .  S
C2687      C2688   1.411       .  A
C2687      C2692   1.411       .  A
C2688      C2689   1.409       .  A
C2688      H2701   1.082       .  S
C2689      C2690   1.405       .  A
C2689      H2702   1.083       .  S
C2690      C2691   1.402       .  A
C2690      C2693   1.461       .  S
C2691      C2692   1.404       .  A
C2691      H2703   1.083       .  S
C2692      H2704   1.083       .  S
C2693      C2694   1.219       .  T
C2694      C2695   1.461       .  S
C2695      C2696   1.404       .  A
C2695      C2700   1.404       .  A
C2696      C2697   1.408       .  A
C2696      H2705   1.083       .  S
C2697      C2698   1.411       .  A
C2697      H2706   1.083       .  S
C2698      C2699   1.410       .  A
C2699      C2700   1.406       .  A
C2699      H2707   1.083       .  S
C2700      H2708   1.083       .  S
C2709      C2710   1.408       .  A
C2709      C2714   1.408       .  A
C2710      C2711   1.399       .  A
C2711      C2712   1.399       .  A
C2711      H2724   1.084       .  S
C2712      C2713   1.400       .  A
C2712      C2715   1.442       .  S
C2713      C2714   1.400       .  A
C2713      H2725   1.083       .  S
C2714      H2726   1.083       .  S
C2715      C2716   1.207       .  T
C2716      C2717   1.442       .  S
C2717      C2718   1.399       .  A
C2717      C2722   1.401       .  A
C2718      C2719   1.398       .  A
C2718      H2727   1.083       .  S
C2719      C2720   1.407       .  A
C2720      C2721   1.407       .  A
C2721      C2722   1.400       .  A
C2721      H2729   1.083       .  S
C2722      H2730   1.083       .  S
C2731      C2732   1.409       .  A
C2731      C2736   1.409       .  A
C2732      C2733   1.405       .  A
C2732      H2745   1.083       .  S
C2733      C2734   1.403       .  A
C2733      H2746   1.083       .  S
C2734      C2735   1.404       .  A
C2734      C2737   1.459       .  S
C2735      C2736   1.406       .  A
C2735      H2747   1.083       .  S
C2736      H2748   1.083       .  S
C2737      C2738   1.218       .  T
C2738      C2739   1.459       .  S
C2739      C2740   1.404       .  A
C2739      C2744   1.403       .  A
C2740      C2741   1.406       .  A
C2740      H2749   1.083       .  S
C2741      C2742   1.410       .  A
C2741      H2750   1.083       .  S
C2742      C2743   1.410       .  A
C2743      C2744   1.406       .  A
C2743      H2751   1.083       .  S
C2744      H2752   1.083       .  S
C2753      C2754   1.407       .  A
C2753      C2758   1.408       .  A
C2754      C2755   1.400       .  A
C2754      H2767   1.081       .  S
C2755      C2756   1.400       .  A
C2755      H2768   1.084       .  S
C2756      C2757   1.401       .  A
C2756      C2759   1.447       .  S
C2757      C2758   1.403       .  A
C2757      H2769   1.083       .  S
C2758      H2770   1.083       .  S
C2759      C2760   1.210       .  T
C2760      C2761   1.447       .  S
C2761      C2762   1.402       .  A
C2761      C2766   1.400       .  A
C2762      C2763   1.403       .  A
C2762      H2771   1.083       .  S
C2763      C2764   1.409       .  A
C2764      C2765   1.408       .  A
C2765      C2766   1.400       .  A
C2765      H2773   1.083       .  S
C2766      H2774   1.083       .  S
C2775      C2776   1.409       .  A
C2776      C2777   1.405       .  A
C2776      H2789   1.082       .  S
C2777      C2778   1.403       .  A
C2777      H2790   1.083       .  S
C2778      C2779   1.401       .  A
C2778      C2781   1.453       .  S
C2779      H2791   1.083       .  S
C2780      H2792   1.083       .  S
C2781      C2782   1.214       .  T
C2782      C2783   1.454       .  S
C2783      C2784   1.402       .  A
C2783      C2788   1.402       .  A
C2784      C2785   1.404       .  A
C2784      H2793   1.083       .  S
C2785      C2786   1.409       .  A
C2786      C2787   1.409       .  A
C2787      C2788   1.404       .  A
C2787      H2795   1.083       .  S
C2788      H2796   1.083       .  S
C2797      C2798   1.409       .  A
C2797      C2802   1.408       .  A
C2798      C2799   1.404       .  A
C2798      H2811   1.083       .  S
C2799      C2800   1.402       .  A
C2799      H2812   1.083       .  S
C2800      C2801   1.405       .  A
C2800      C2803   1.459       .  S
C2801      C2802   1.407       .  A
C2801      H2813   1.083       .  S
C2802      H2814   1.083       .  S
C2803      C2804   1.218       .  T
C2804      C2805   1.459       .  S
C2805      C2806   1.404       .  A
C2805      C2810   1.402       .  A
C2806      C2807   1.408       .  A
C2806      H2815   1.083       .  S
C2807      C2808   1.410       .  A
C2807      H2816   1.083       .  S
C2808      C2809   1.410       .  A
C2809      C2810   1.405       .  A
C2809      H2817   1.083       .  S
C2810      H2818   1.083       .  S
C2819      C2820   1.408       .  A
C2819      C2824   1.409       .  A
C2820      C2821   1.402       .  A
C2821      C2822   1.402       .  A
C2821      H2834   1.083       .  S
C2822      C2823   1.400       .  A
C2822      C2825   1.447       .  S
C2823      C2824   1.401       .  A
C2823      H2835   1.083       .  S
C2824      H2836   1.083       .  S
C2825      C2826   1.210       .  T
C2826      C2827   1.447       .  S
C2827      C2828   1.402       .  A
C2827      C2832   1.400       .  A
C2828      C2829   1.402       .  A
C2828      H2837   1.083       .  S
C2829      C2830   1.407       .  A
C2829      H2838   1.082       .  S
C2830      C2831   1.408       .  A
C2831      C2832   1.400       .  A
C2831      H2839   1.083       .  S
C2832      H2840   1.084       .  S
C2841      C2842   1.411       .  A
C2841      C2846   1.411       .  A
C2842      C2843   1.407       .  A
C2842      H2855   1.083       .  S
C2843      C2844   1.404       .  A
C2843      H2856   1.083       .  S
C2844      C2845   1.405       .  A
C2844      C2847   1.465       .  S
C2845      C2846   1.411       .  A
C2845      H2857   1.083       .  S
C2846      H2858   1.083       .  S
C2847      C2848   1.221       .  T
C2848      C2849   1.465       .  S
C2849      C2850   1.406       .  A
C2849      C2854   1.403       .  A
C2850      C2851   1.410       .  A
C2850      H2859   1.083       .  S
C2851      C2852   1.409       .  A
C2851      H2860   1.083       .  S
C2852      C2853   1.409       .  A
C2853      C2854   1.406       .  A
C2853      H2861   1.083       .  S
C2854      H2862   1.083       .  S
C2863      C2864   1.410       .  A
C2863      C2868   1.409       .  A
C2864      C2865   1.401       .  A
C2864      H2877   1.083       .  S
C2865      C2866   1.400       .  A
C2865      H2878   1.084       .  S
C2866      C2867   1.406       .  A
C2866      C2869   1.457       .  S
C2867      C2868   1.410       .  A
C2867      H2879   1.083       .  S
C2868      H2880   1.083       .  S
C2869      C2870   1.216       .  T
C2870      C2871   1.457       .  S
C2871      C2872   1.403       .  A
C2871      C2876   1.403       .  A
C2872      C2873   1.406       .  A
C2872      H2881   1.083       .  S
C2873      C2874   1.411       .  A
C2873      H2882   1.083       .  S
C2874      C2875   1.409       .  A
C2875      C2876   1.405       .  A
C2875      H2883   1.083       .  S
C2876      H2884   1.083       .  S
C2885      C2886   1.410       .  A
C2885      C2890   1.408       .  A
C2886      C2887   1.404       .  A
C2886      H2899   1.083       .  S
C2887      C2888   1.402       .  A
C2887      H2900   1.083       .  S
C2888      C2889   1.407       .  A
C2888      C2891   1.463       .  S
C2889      C2890   1.411       .  A
C2889      H2901   1.083       .  S
C2890      H2902   1.082       .  S
C2891      C2892   1.220       .  T
C2892      C2893   1.464       .  S
C2893      C2894   1.404       .  A
C2893      C2898   1.404       .  A
C2894      C2895   1.408       .  A
C2894      H2903   1.083       .  S
C2895      C2896   1.411       .  A
C2895      H2904   1.083       .  S
C2896      C2897   1.411       .  A
C2897      C2898   1.408       .  A
C2897      H2905   1.083       .  S
C2898      H2906   1.083       .  S
C2907      C2908   1.411       .  A
C2907      C2912   1.409       .  A
C2908      C2909   1.406       .  A
C2908      H2921   1.083       .  S
C2909      C2910   1.402       .  A
C2909      H2922   1.083       .  S
C2910      C2911   1.404       .  A
C2910      C2913   1.458       .  S
C2911      C2912   1.406       .  A
C2911      H2923   1.083       .  S
C2912      H2924   1.083       .  S
C2913      C2914   1.217       .  T
C2914      C2915   1.458       .  S
C2915      C2916   1.405       .  A
C2915      C2920   1.402       .  A
C2916      C2917   1.408       .  A
C2916      H2925   1.083       .  S
C2917      C2918   1.408       .  A
C2917      H2926   1.082       .  S
C2918      C2919   1.409       .  A
C2919      C2920   1.404       .  A
C2919      H2927   1.083       .  S
C2920      H2928   1.083       .  S
