geometry optimzed in LAMMPS
_audit_creation_date              2020-12-01 
_audit_creation_method            'lammps2cif' 
_symmetry_space_group_name_H-M    'P1' 
_symmetry_Int_Tables_number       1 
_symmetry_cell_setting            triclinic 
loop_ 
_symmetry_equiv_pos_as_xyz 
  x,y,z 
_cell_length_a                    29.29396165 
_cell_length_b                    30.019561121301887 
_cell_length_c                    45.26485896116895 
_cell_angle_alpha                 90.11533497396721 
_cell_angle_beta                  89.70199998002695 
_cell_angle_gamma                 90.43557863342178 
loop_ 
_atom_site_label 
_atom_site_type_symbol 
_atom_site_fract_x 
_atom_site_fract_y 
_atom_site_fract_z 
_atom_site_charge 
O1          O  0.09807182  0.03371880  0.48701124    -0.80400
O2          O  0.90680844  0.95832798  0.48691795    -0.80400
O3          O  0.00945245  0.91843597  0.45446995    -0.80400
O4          O  0.94667916  0.09122787  0.47653668    -0.80300
O5          O  0.96501760  0.88963019  0.48898971    -0.80500
O6          O  0.02030269  0.07680141  0.47185363    -0.80400
O7          O  0.94397456  0.00489765  0.45738348    -0.80400
O8          O  0.07174976  0.98798793  0.45383174    -0.80400
C9          C  0.10082339  0.01704343  0.46142064     1.09300
C10         C  0.91093667  0.97818825  0.46202377     1.09200
C11         C  0.98086546  0.88912530  0.46273991     1.09300
C12         C  0.98493061  0.10046539  0.46495248     1.09200
O13         O  0.06039140  0.09271874  0.02463806    -0.80400
O14         O  0.99911283  0.91838218  0.04582310    -0.80400
O15         O  0.10186778  0.96024353  0.01300620    -0.80400
O16         O  0.90961222  0.03121046  0.01353159    -0.80400
O17         O  0.93695694  0.98661634  0.04652884    -0.80400
O18         O  0.06515848  0.00598307  0.04314342    -0.80400
O19         O  0.98694792  0.07614663  0.02910175    -0.80300
O20         O  0.04381399  0.89033323  0.01131624    -0.80400
Co21       Co  0.03911835  0.03807872  0.50916035     1.51500
Co22       Co  0.95502421  0.94126927  0.01687903     1.51700
Co23       Co  0.05360345  0.94221429  0.48336644     1.51600
Co24       Co  0.96887095  0.03724792  0.99167159     1.51500
O25         O  0.00428558  0.98218047  0.50027000    -1.42300
C26         C  0.02181771  0.10103276  0.03596684     1.09200
C27         C  0.02779767  0.88954440  0.03755964     1.09300
C28         C  0.09798276  0.97952937  0.03811008     1.09300
C29         C  0.90706371  0.01430562  0.03901940     1.09300
C30         C  0.02608839  0.53805539  0.18853648     0.02900
C31         C  0.01887516  0.53664115  0.21927467    -0.13300
C32         C  0.00462785  0.49711147  0.23360104     0.00400
C33         C  0.99935520  0.45824149  0.21630261    -0.11800
C34         C  0.00905442  0.45828296  0.18582442     0.02900
C35         C  0.02184289  0.49847122  0.17212010    -0.11200
H36         H  0.02509871  0.56664382  0.23191719     0.08500
H37         H  0.98797057  0.42749457  0.22637134     0.06000
H38         H  0.02708276  0.49912214  0.14841898     0.05900
C39         C  0.99045197  0.45623953  0.31360983     0.02900
C40         C  0.97940435  0.49632411  0.32799973    -0.13300
C41         C  0.97609582  0.53639413  0.31219074     0.00400
C42         C  0.98278723  0.53583167  0.28141945    -0.11800
C43         C  0.99543271  0.49656981  0.26638515     0.02900
C44         C  0.99936024  0.45700317  0.28299206    -0.11200
H45         H  0.97491190  0.49661505  0.35176149     0.08500
H46         H  0.97746109  0.56633203  0.26930220     0.06000
H47         H  0.00928325  0.42642293  0.27223987     0.05900
C48         C  0.45937855  0.99731019  0.18894029     0.02900
C49         C  0.49974199  0.00395364  0.17254191    -0.13300
C50         C  0.54116153  0.01373288  0.18677361     0.00400
C51         C  0.54184852  0.01697792  0.21773695    -0.11800
C52         C  0.50234971  0.00874540  0.23483118     0.02900
C53         C  0.46133313  0.99860283  0.21998404    -0.11200
H54         H  0.49867093  0.00310654  0.14862659     0.08500
H55         H  0.57361490  0.02576714  0.22839781     0.06000
H56         H  0.43067514  0.99087444  0.23241914     0.05900
C57         C  0.46622710  0.02321978  0.31573306     0.02900
C58         C  0.46515476  0.02228063  0.28468538    -0.13300
C59         C  0.50407648  0.01085156  0.26796753     0.00400
C60         C  0.54477861  0.00144882  0.28316896    -0.11800
C61         C  0.54735531  0.00459548  0.31411975     0.02900
C62         C  0.50758211  0.01470386  0.33024987    -0.11200
H63         H  0.43355487  0.03013584  0.27369170     0.08500
H64         H  0.57469365  0.99075767  0.27107923     0.06000
H65         H  0.50899036  0.01717123  0.35410491     0.05900
C66         C  0.99275126  0.41360259  0.33055131    -0.03600
C67         C  0.96122264  0.40444139  0.35341536    -0.09300
C68         C  0.96263411  0.36405862  0.36883704    -0.17000
C69         C  0.99544165  0.33204426  0.36166743     0.25100
C70         C  0.02709065  0.34088572  0.33911600    -0.18700
C71         C  0.02588046  0.38130804  0.32374465    -0.07600
C72         C  0.99642318  0.29010165  0.37731501    -0.14000
C73         C  0.99624579  0.25524369  0.39069232    -0.13800
C74         C  0.99385502  0.21439135  0.40753136     0.25000
C75         C  0.03369812  0.19217592  0.41591283    -0.19200
C76         C  0.03101268  0.15407301  0.43379308    -0.07600
C77         C  0.98837892  0.13788464  0.44362501    -0.03700
C78         C  0.94856495  0.15973986  0.43435566    -0.09000
C79         C  0.95132304  0.19760478  0.41648958    -0.16700
H80         H  0.93486440  0.42812713  0.35903191     0.11500
H81         H  0.93785947  0.35766775  0.38620654     0.10800
H82         H  0.05277740  0.31652314  0.33340400     0.10700
H83         H  0.05123306  0.38738298  0.30671767     0.11200
H84         H  0.06686029  0.20477473  0.40910176     0.11300
H85         H  0.06225664  0.13806034  0.44056995     0.11300
H86         H  0.91516315  0.14810160  0.44139512     0.11400
H87         H  0.92022874  0.21431089  0.41013427     0.10200
C88         C  0.96906614  0.85158286  0.44270225    -0.03600
C89         C  0.98950936  0.84821204  0.41458826    -0.09300
C90         C  0.98259028  0.81026677  0.39711580    -0.17000
C91         C  0.95504205  0.77519088  0.40736816     0.25100
C92         C  0.93322885  0.77889676  0.43485469    -0.18700
C93         C  0.94008426  0.81684276  0.45238257    -0.07600
C94         C  0.95150161  0.73453353  0.39040302    -0.14000
C95         C  0.95175604  0.70035047  0.37625228    -0.13800
C96         C  0.95569664  0.65972186  0.35932328     0.25000
C97         C  0.93063611  0.62161689  0.36726191    -0.19200
C98         C  0.93653418  0.58165792  0.35168058    -0.07600
C99         C  0.96764428  0.57926531  0.32791325    -0.03700
C100        C  0.99210026  0.61798104  0.31985567    -0.09000
C101        C  0.98617949  0.65780613  0.33545114    -0.16700
H102        H  0.01198745  0.87427327  0.40644529     0.11500
H103        H  0.99970916  0.80780423  0.37590283     0.10800
H104        H  0.91185607  0.75199612  0.44307225     0.10700
H105        H  0.92378282  0.81834121  0.47388619     0.11200
H106        H  0.90693558  0.62263729  0.38570119     0.11300
H107        H  0.91683100  0.55263217  0.35823815     0.11300
H108        H  0.01679673  0.61718610  0.30198242     0.11400
H109        H  0.00598287  0.68694613  0.32918120     0.10200
C110        C  0.00647265  0.41614182  0.16839625    -0.03600
C111        C  0.97082294  0.38516919  0.17307021    -0.09300
C112        C  0.96974684  0.34475977  0.15753588    -0.17000
C113        C  0.00425277  0.33463712  0.13712174     0.25100
C114        C  0.03952348  0.36548896  0.13205090    -0.18700
C115        C  0.04062650  0.40592344  0.14751212    -0.07600
C116        C  0.00398652  0.29242521  0.12169183    -0.14000
C117        C  0.00526637  0.25734283  0.10853466    -0.13800
C118        C  0.00900662  0.21622021  0.09205512     0.25000
C119        C  0.05215998  0.19998442  0.08444014    -0.19200
C120        C  0.05622859  0.16172146  0.06697482    -0.07600
C121        C  0.01712834  0.13890792  0.05686107    -0.03700
C122        C  0.97384358  0.15464988  0.06529925    -0.09000
C123        C  0.96984719  0.19314778  0.08271672    -0.16700
H124        H  0.94368183  0.39224238  0.18867665     0.11500
H125        H  0.94215404  0.32129875  0.16159407     0.10800
H126        H  0.06649113  0.35808854  0.11635822     0.10700
H127        H  0.06880058  0.42876590  0.14363733     0.11200
H128        H  0.08273545  0.21740239  0.09153866     0.11300
H129        H  0.09006393  0.15046801  0.06094246     0.11300
H130        H  0.94311546  0.13797136  0.05776054     0.11400
H131        H  0.93622799  0.20534850  0.08844435     0.10200
C132        C  0.03940903  0.85223068  0.05766536    -0.03600
C133        C  0.02316890  0.85160402  0.08699726    -0.09300
C134        C  0.02965336  0.81419145  0.10489680    -0.17000
C135        C  0.05245197  0.77680926  0.09382835     0.25100
C136        C  0.07007154  0.77769707  0.06500191    -0.18700
C137        C  0.06376428  0.81514884  0.04708192    -0.07600
C138        C  0.05518728  0.73672542  0.11140030    -0.14000
C139        C  0.05443138  0.70280406  0.12580126    -0.13800
C140        C  0.04996560  0.66212429  0.14268513     0.25000
C141        C  0.07398858  0.62385975  0.13438207    -0.19200
C142        C  0.06714364  0.58372957  0.14963497    -0.07600
C143        C  0.03608382  0.58125244  0.17345286    -0.03700
C144        C  0.01287152  0.62017020  0.18199033    -0.09000
C145        C  0.01974186  0.66018157  0.16671908    -0.16700
H146        H  0.00438377  0.87956075  0.09588613     0.11500
H147        H  0.01580531  0.81399043  0.12714089     0.11400
H148        H  0.08768111  0.74900316  0.05610379     0.10700
H149        H  0.07662217  0.81442159  0.02461366     0.11200
H150        H  0.09750019  0.62485001  0.11583583     0.11300
H151        H  0.08597730  0.55459549  0.14270778     0.11300
H152        H  0.98825948  0.61938129  0.19991620     0.11400
H153        H  0.00073253  0.68941567  0.17330175     0.10200
C154        C  0.87417616  0.97379515  0.43969934    -0.03600
C155        C  0.83907004  0.94197637  0.44331961    -0.09300
C156        C  0.80098934  0.94199173  0.42473407    -0.17000
C157        C  0.79736957  0.97376808  0.40226607     0.25100
C158        C  0.83311855  0.00426601  0.39764421    -0.18700
C159        C  0.87133643  0.00419926  0.41612764    -0.07600
C160        C  0.75578824  0.97689989  0.38533895    -0.14000
C161        C  0.71999391  0.98074906  0.37240796    -0.13800
C162        C  0.67667874  0.98632279  0.35773016     0.25000
C163        C  0.67454175  0.00932615  0.33091343    -0.19200
C164        C  0.63258788  0.01518314  0.31682779    -0.07600
C165        C  0.59192420  0.99808785  0.32931282    -0.03700
C166        C  0.59438515  0.97515097  0.35635617    -0.09000
C167        C  0.63644337  0.96932785  0.37041846    -0.16700
H168        H  0.84031939  0.91796578  0.46111701     0.11500
H169        H  0.77368125  0.91810899  0.42850759     0.10800
H170        H  0.83081907  0.02902942  0.38034302     0.10700
H171        H  0.89767330  0.02921058  0.41274362     0.11200
H172        H  0.70529504  0.02294174  0.32093466     0.11300
H173        H  0.63190372  0.03368203  0.29632442     0.11300
H174        H  0.56390719  0.96121487  0.36645196     0.11400
H175        H  0.63757048  0.95151568  0.39119316     0.10200
C176        C  0.42373305  0.03205194  0.33289556    -0.03600
C177        C  0.39314418  0.06538724  0.32403021    -0.09300
C178        C  0.35184866  0.07161610  0.33917978    -0.17000
C179        C  0.34052802  0.04460135  0.36335861     0.25100
C180        C  0.37110485  0.01189617  0.37261913    -0.18700
C181        C  0.41241686  0.00570023  0.35757168    -0.07600
C182        C  0.29696471  0.04895525  0.37809534    -0.14000
C183        C  0.26069609  0.04908973  0.39092657    -0.13800
C184        C  0.21826272  0.04492114  0.40706633     0.25000
C185        C  0.18420359  0.01568872  0.39702795    -0.19200
C186        C  0.14504243  0.00784692  0.41415115    -0.07600
C187        C  0.13947056  0.02910668  0.44164342    -0.03700
C188        C  0.17311987  0.05965307  0.45106554    -0.09000
C189        C  0.21225808  0.06741628  0.43391140    -0.16700
H190        H  0.40110680  0.08653145  0.30531754     0.11500
H191        H  0.32853311  0.09707302  0.33179836     0.10800
H192        H  0.36266374  0.99063072  0.39120862     0.10700
H193        H  0.43493153  0.97942781  0.36470748     0.11200
H194        H  0.18851589  0.99794838  0.37634167     0.11300
H195        H  0.11983926  0.98412964  0.40628768     0.11300
H196        H  0.16988768  0.07656635  0.47212260     0.11400
H197        H  0.23840026  0.08999458  0.44199042     0.10200
C198        C  0.58399040  0.02033955  0.16946889    -0.03600
C199        C  0.61474381  0.05491726  0.17668234    -0.09300
C200        C  0.65606137  0.05974050  0.16131339    -0.17000
C201        C  0.66726264  0.03007750  0.13855401     0.25100
C202        C  0.63664923  0.99590315  0.13099162    -0.18700
C203        C  0.59526171  0.99109151  0.14627919    -0.07600
C204        C  0.71042957  0.03401681  0.12327416    -0.14000
C205        C  0.74634440  0.03527470  0.11007917    -0.13800
C206        C  0.78845698  0.03388221  0.09347524     0.25000
C207        C  0.79108181  0.05329368  0.06541917    -0.19200
C208        C  0.83049754  0.04850043  0.04815448    -0.07600
C209        C  0.86776181  0.02394279  0.05867183    -0.03700
C210        C  0.86539610  0.00577020  0.08727247    -0.09000
C211        C  0.82598805  0.01074231  0.10454038    -0.16700
H212        H  0.60679102  0.07827603  0.19419444     0.11500
H213        H  0.67938559  0.08638787  0.16732624     0.10800
H214        H  0.64499178  0.97265350  0.11346978     0.10700
H215        H  0.57255281  0.96387076  0.14045135     0.11200
H216        H  0.76222989  0.07115738  0.05657381     0.11300
H217        H  0.83117785  0.06275679  0.02619409     0.11300
H218        H  0.89349940  0.98670803  0.09599370     0.11400
H219        H  0.82434869  0.99551364  0.12620758     0.10200
C220        C  0.13474607  0.97410478  0.06029129    -0.03600
C221        C  0.17066949  0.94418067  0.05494824    -0.09300
C222        C  0.20836505  0.94279333  0.07377723    -0.17000
C223        C  0.21080874  0.97115041  0.09830839     0.25100
C224        C  0.17440246  0.99979063  0.10450485    -0.18700
C225        C  0.13656245  0.00121255  0.08568730    -0.07600
C226        C  0.25182761  0.97266291  0.11592934    -0.14000
C227        C  0.28731029  0.97516193  0.12941235    -0.13800
C228        C  0.33032261  0.97964617  0.14471202     0.25000
C229        C  0.33368125  0.00717811  0.16961426    -0.19200
C230        C  0.37550283  0.01252630  0.18405767    -0.07600
C231        C  0.41480059  0.99050790  0.17378191    -0.03700
C232        C  0.41115688  0.96287801  0.14872511    -0.09000
C233        C  0.36919200  0.95744712  0.13435073    -0.16700
H234        H  0.17033313  0.92270003  0.03569900     0.11500
H235        H  0.23620720  0.92043820  0.06872091     0.10800
H236        H  0.17582439  0.02192846  0.12341732     0.10700
H237        H  0.10956954  0.02464760  0.09044324     0.11200
H238        H  0.30403044  0.02482340  0.17774967     0.11300
H239        H  0.37730155  0.03458513  0.20298325     0.11300
H240        H  0.44065926  0.94523924  0.14039334     0.11400
H241        H  0.36712363  0.93610038  0.11506751     0.10200
O242        O  0.09807329  0.03371783  0.98701157    -0.80400
O243        O  0.90680906  0.95832726  0.98691817    -0.80400
O244        O  0.00945369  0.91843559  0.95447003    -0.80400
O245        O  0.94668013  0.09122672  0.97653620    -0.80300
O246        O  0.96501829  0.88962977  0.98898947    -0.80500
O247        O  0.02030390  0.07680071  0.97185367    -0.80400
O248        O  0.94397549  0.00489622  0.95738349    -0.80400
O249        O  0.07175160  0.98798679  0.95383207    -0.80400
C250        C  0.10082509  0.01704245  0.96142099     1.09300
C251        C  0.91093767  0.97818678  0.96202379     1.09200
C252        C  0.98086601  0.88912537  0.96273964     1.09300
C253        C  0.98493174  0.10046453  0.96495231     1.09200
O254        O  0.06039009  0.09271938  0.52463799    -0.80400
O255        O  0.99911249  0.91838359  0.54582303    -0.80400
O256        O  0.10186692  0.96024478  0.51300565    -0.80400
O257        O  0.90961117  0.03121094  0.51353122    -0.80400
O258        O  0.93695644  0.98661755  0.54652863    -0.80400
O259        O  0.06515740  0.00598369  0.54314314    -0.80400
O260        O  0.98694681  0.07614688  0.52910215    -0.80300
O261        O  0.04381350  0.89033454  0.51131608    -0.80400
Co262      Co  0.03911959  0.03807801  0.00916049     1.51500
Co263      Co  0.95502353  0.94127013  0.51687898     1.51700
Co264      Co  0.05360449  0.94221331  0.98336680     1.51600
Co265      Co  0.96887000  0.03724883  0.49167170     1.51500
O266        O  0.00428660  0.98217974  0.00027029    -1.42300
C267        C  0.02181651  0.10103328  0.53596695     1.09200
C268        C  0.02779759  0.88954604  0.53755958     1.09300
C269        C  0.09798177  0.97953017  0.53810968     1.09300
C270        C  0.90706259  0.01430598  0.53901893     1.09300
C271        C  0.02608857  0.53805657  0.68853617     0.02900
C272        C  0.01887545  0.53664218  0.71927439    -0.13300
C273        C  0.00462871  0.49711233  0.73360083     0.00400
C274        C  0.99935652  0.45824231  0.71630243    -0.11800
C275        C  0.00905574  0.45828374  0.68582426     0.02900
C276        C  0.02184379  0.49847214  0.67211986    -0.11200
H277        H  0.02509858  0.56664497  0.73191698     0.08500
H278        H  0.98797220  0.42749534  0.72637121     0.06000
H279        H  0.02708363  0.49912297  0.64841877     0.05900
C280        C  0.99045258  0.45624006  0.81360962     0.02900
C281        C  0.97940497  0.49632466  0.82799951    -0.13300
C282        C  0.97609609  0.53639470  0.81219055     0.00400
C283        C  0.98278741  0.53583221  0.78141922    -0.11800
C284        C  0.99543341  0.49657049  0.76638495     0.02900
C285        C  0.99936111  0.45700383  0.78299186    -0.11200
H286        H  0.97491271  0.49661553  0.85176129     0.08500
H287        H  0.97746084  0.56633235  0.76930191     0.06000
H288        H  0.00928437  0.42642370  0.77223969     0.05900
C289        C  0.45937768  0.99730913  0.68894070     0.02900
C290        C  0.49974082  0.00395307  0.67254210    -0.13300
C291        C  0.54116064  0.01373205  0.68677356     0.00400
C292        C  0.54184824  0.01697644  0.71773693    -0.11800
C293        C  0.50234980  0.00874360  0.73483144     0.02900
C294        C  0.46133287  0.99860120  0.71998448    -0.11200
H295        H  0.49866930  0.00310650  0.64862679     0.08500
H296        H  0.57361492  0.02576542  0.72839759     0.06000
H297        H  0.43067515  0.99087255  0.73241971     0.05900
C298        C  0.46622812  0.02321640  0.81573367     0.02900
C299        C  0.46515545  0.02227753  0.78468602    -0.13300
C300        C  0.50407712  0.01084941  0.76796786     0.00400
C301        C  0.54477981  0.00144752  0.78316911    -0.11800
C302        C  0.54735651  0.00459345  0.81411997     0.02900
C303        C  0.50758324  0.01470063  0.83025030    -0.11200
H304        H  0.43355517  0.03013270  0.77369258     0.08500
H305        H  0.57469505  0.99075760  0.77107933     0.06000
H306        H  0.50899153  0.01716754  0.85410538     0.05900
C307        C  0.99275151  0.41360300  0.83055110    -0.03600
C308        C  0.96122317  0.40444232  0.85341543    -0.09300
C309        C  0.96263462  0.36405980  0.86883745    -0.17000
C310        C  0.99544170  0.33204499  0.86166783     0.25100
C311        C  0.02709015  0.34088575  0.83911592    -0.18700
C312        C  0.02588007  0.38130789  0.82374428    -0.07600
C313        C  0.99642313  0.29010262  0.87731586    -0.14000
C314        C  0.99624571  0.25524472  0.89069336    -0.13800
C315        C  0.99385546  0.21439194  0.90753211     0.25000
C316        C  0.03369904  0.19217907  0.91591570    -0.19200
C317        C  0.03101398  0.15407567  0.93379555    -0.07600
C318        C  0.98838014  0.13788414  0.94362503    -0.03700
C319        C  0.94856579  0.15973683  0.93435362    -0.09000
C320        C  0.95132354  0.19760222  0.91648790    -0.16700
H321        H  0.93486523  0.42812825  0.85903200     0.11500
H322        H  0.93786032  0.35766952  0.88620718     0.10800
H323        H  0.05277650  0.31652281  0.83340382     0.10700
H324        H  0.05123238  0.38738227  0.80671705     0.11200
H325        H  0.06686119  0.20478032  0.90910658     0.11300
H326        H  0.06225827  0.13806510  0.94057412     0.11300
H327        H  0.91516398  0.14809617  0.94139118     0.11400
H328        H  0.92022871  0.21430635  0.91013097     0.10200
C329        C  0.96906574  0.85158383  0.94270155    -0.03600
C330        C  0.98950845  0.84821337  0.91458739    -0.09300
C331        C  0.98258923  0.81026818  0.89711488    -0.17000
C332        C  0.95504144  0.77519204  0.90736741     0.25100
C333        C  0.93322840  0.77889781  0.93485398    -0.18700
C334        C  0.94008382  0.81684376  0.95238185    -0.07600
C335        C  0.95150144  0.73453442  0.89040257    -0.14000
C336        C  0.95175598  0.70035109  0.87625214    -0.13800
C337        C  0.95569659  0.65972235  0.85932330     0.25000
C338        C  0.93063821  0.62161664  0.86726303    -0.19200
C339        C  0.93653611  0.58165780  0.85168158    -0.07600
C340        C  0.96764421  0.57926592  0.82791306    -0.03700
C341        C  0.99209807  0.61798243  0.81985445    -0.09000
C342        C  0.98617735  0.65780745  0.83544999    -0.16700
H343        H  0.01198651  0.87427469  0.90644441     0.11500
H344        H  0.99970790  0.80780573  0.87590181     0.10800
H345        H  0.91185596  0.75199705  0.94307167     0.10700
H346        H  0.92378275  0.81834201  0.97388555     0.11200
H347        H  0.90693925  0.62263639  0.88570336     0.11300
H348        H  0.91683440  0.55263153  0.85824000     0.11300
H349        H  0.01679310  0.61718830  0.80198027     0.11400
H350        H  0.00597903  0.68694797  0.82917923     0.10200
C351        C  0.00647395  0.41614239  0.66839622    -0.03600
C352        C  0.97082462  0.38516946  0.67307083    -0.09300
C353        C  0.96974820  0.34476005  0.65753650    -0.17000
C354        C  0.00425324  0.33463767  0.63712174     0.25100
C355        C  0.03952376  0.36548958  0.63205044    -0.18700
C356        C  0.04062719  0.40592408  0.64751167    -0.07600
C357        C  0.00398622  0.29242601  0.62169160    -0.14000
C358        C  0.00526548  0.25734378  0.60853427    -0.13800
C359        C  0.00900559  0.21622130  0.59205462     0.25000
C360        C  0.05215890  0.19998611  0.58443905    -0.19200
C361        C  0.05622748  0.16172300  0.56697392    -0.07600
C362        C  0.01712722  0.13890869  0.55686096    -0.03700
C363        C  0.97384249  0.15465015  0.56529962    -0.09000
C364        C  0.96984612  0.19314829  0.58271685    -0.16700
H365        H  0.94368410  0.39224242  0.68867756     0.11500
H366        H  0.94215559  0.32129885  0.66159515     0.10800
H367        H  0.06649085  0.35808927  0.61635732     0.10700
H368        H  0.06880100  0.42876667  0.64363643     0.11200
H369        H  0.08273438  0.21740467  0.59153703     0.11300
H370        H  0.09006281  0.15046997  0.56094112     0.11300
H371        H  0.94311437  0.13797099  0.55776150     0.11400
H372        H  0.93622696  0.20534868  0.58844484     0.10200
C373        C  0.03940949  0.85223272  0.55766539    -0.03600
C374        C  0.02317398  0.85160869  0.58699835    -0.09300
C375        C  0.02965806  0.81419633  0.60489816    -0.17000
C376        C  0.05245169  0.77681177  0.59382883     0.25100
C377        C  0.07006693  0.77769703  0.56500131    -0.18700
C378        C  0.06376014  0.81514855  0.54708107    -0.07600
C379        C  0.05518614  0.73672818  0.61140107    -0.14000
C380        C  0.05443001  0.70280670  0.62580190    -0.13800
C381        C  0.04996441  0.66212653  0.64268536     0.25000
C382        C  0.07398639  0.62386190  0.63438133    -0.19200
C383        C  0.06714182  0.58373141  0.64963395    -0.07600
C384        C  0.03608320  0.58125394  0.67345249    -0.03700
C385        C  0.01287160  0.62017178  0.68199075    -0.09000
C386        C  0.01974174  0.66018351  0.66671985    -0.16700
H387        H  0.00439263  0.87956742  0.59588790     0.11500
H388        H  0.01581347  0.81399733  0.62714312     0.11400
H389        H  0.08767265  0.74900119  0.55610251     0.10700
H390        H  0.07661433  0.81441922  0.52461199     0.11200
H391        H  0.09749709  0.62485235  0.61583457     0.11300
H392        H  0.08597497  0.55459742  0.64270609     0.11300
H393        H  0.98826036  0.61938279  0.69991705     0.11400
H394        H  0.00073312  0.68941769  0.67330324     0.10200
C395        C  0.87417770  0.97379261  0.93969903    -0.03600
C396        C  0.83907118  0.94197438  0.94331977    -0.09300
C397        C  0.80099048  0.94198950  0.92473421    -0.17000
C398        C  0.79737128  0.97376496  0.90226559     0.25100
C399        C  0.83312094  0.00426188  0.89764302    -0.18700
C400        C  0.87133873  0.00419540  0.91612655    -0.07600
C401        C  0.75578976  0.97689738  0.88533868    -0.14000
C402        C  0.71999538  0.98074749  0.87240789    -0.13800
C403        C  0.67668008  0.98632190  0.85773035     0.25000
C404        C  0.67454258  0.00932769  0.83091455    -0.19200
C405        C  0.63258865  0.01518432  0.81682884    -0.07600
C406        C  0.59192550  0.99808637  0.82931301    -0.03700
C407        C  0.59438692  0.97514744  0.85635554    -0.09000
C408        C  0.63644515  0.96932458  0.87041782    -0.16700
H409        H  0.84032005  0.91796458  0.96111772     0.11500
H410        H  0.77368195  0.91810752  0.92850827     0.10800
H411        H  0.83082197  0.02902440  0.88034131     0.10700
H412        H  0.89767609  0.02920609  0.91274198     0.11200
H413        H  0.70529551  0.02294522  0.82093646     0.11300
H414        H  0.63190398  0.03368476  0.79632620     0.11300
H415        H  0.56390931  0.96120939  0.86645064     0.11400
H416        H  0.63757264  0.95151051  0.89119182     0.10200
C417        C  0.42373451  0.03204917  0.83289632    -0.03600
C418        C  0.39314767  0.06538680  0.82403195    -0.09300
C419        C  0.35185222  0.07161649  0.83918142    -0.17000
C420        C  0.34052958  0.04460008  0.86335905     0.25100
C421        C  0.37110456  0.01189264  0.87261867    -0.18700
C422        C  0.41241666  0.00569606  0.85757146    -0.07600
C423        C  0.29696600  0.04895456  0.87809537    -0.14000
C424        C  0.26069720  0.04908947  0.89092638    -0.13800
C425        C  0.21826386  0.04492134  0.90706626     0.25000
C426        C  0.18420290  0.01569175  0.89702681    -0.19200
C427        C  0.14504209  0.00784952  0.91415029    -0.07600
C428        C  0.13947222  0.02910612  0.94164377    -0.03700
C429        C  0.17312332  0.05964991  0.95106696    -0.09000
C430        C  0.21226125  0.06741344  0.93391263    -0.16700
H431        H  0.40111180  0.08653199  0.80532007     0.11500
H432        H  0.32853817  0.09707524  0.83180073     0.10800
H433        H  0.36266182  0.99062589  0.89120728     0.10700
H434        H  0.43492997  0.97942205  0.86470650     0.11200
H435        H  0.18851357  0.99795383  0.87633952     0.11300
H436        H  0.11983740  0.98413430  0.90628593     0.11300
H437        H  0.16989277  0.07656072  0.97212500     0.11400
H438        H  0.23840488  0.08998950  0.94199250     0.10200
C439        C  0.58398922  0.02033862  0.66946851    -0.03600
C440        C  0.61474366  0.05491528  0.67668239    -0.09300
C441        C  0.65606130  0.05973781  0.66131345    -0.17000
C442        C  0.66726142  0.03007534  0.63855355     0.25100
C443        C  0.63664683  0.99590237  0.63099050    -0.18700
C444        C  0.59525942  0.99109124  0.64627822    -0.07600
C445        C  0.71042839  0.03401365  0.62327380    -0.14000
C446        C  0.74634300  0.03527091  0.61007863    -0.13800
C447        C  0.78845478  0.03387872  0.59347398     0.25000
C448        C  0.79107494  0.05328165  0.56541520    -0.19200
C449        C  0.83049074  0.04848971  0.54815057    -0.07600
C450        C  0.86775978  0.02394168  0.55867069    -0.03700
C451        C  0.86539832  0.00577700  0.58727364    -0.09000
C452        C  0.82599016  0.01074804  0.60454156    -0.16700
H453        H  0.60679178  0.07827359  0.69419490     0.11500
H454        H  0.67938648  0.08638411  0.66732676     0.10800
H455        H  0.64498847  0.97265333  0.61346819     0.10700
H456        H  0.57254978  0.96387121  0.64045003     0.11200
H457        H  0.76221949  0.07113798  0.55656787     0.11300
H458        H  0.83116763  0.06273939  0.52618825     0.11300
H459        H  0.89350542  0.98672222  0.59599690     0.11400
H460        H  0.82435431  0.99552590  0.62621090     0.10200
C461        C  0.13474497  0.97410516  0.56029091    -0.03600
C462        C  0.17066929  0.94418234  0.55494727    -0.09300
C463        C  0.20836474  0.94279485  0.57377636    -0.17000
C464        C  0.21080738  0.97115058  0.59830830     0.25100
C465        C  0.17440009  0.99978927  0.60450543    -0.18700
C466        C  0.13656021  0.00121130  0.58568772    -0.07600
C467        C  0.25182616  0.97266326  0.61592943    -0.14000
C468        C  0.28730887  0.97516226  0.62941251    -0.13800
C469        C  0.33032131  0.97964616  0.64471226     0.25000
C470        C  0.33367995  0.00717696  0.66961507    -0.19200
C471        C  0.37550159  0.01252478  0.68405856    -0.07600
C472        C  0.41479947  0.99050695  0.67378241    -0.03700
C473        C  0.41115570  0.96287800  0.64872512    -0.09000
C474        C  0.36919084  0.95744768  0.63435061    -0.16700
H475        H  0.17033380  0.92270281  0.53569738     0.11500
H476        H  0.23620750  0.92044086  0.56871957     0.10800
H477        H  0.17582106  0.02192578  0.62341850     0.10700
H478        H  0.10956653  0.02464520  0.59044423     0.11200
H479        H  0.30402899  0.02482179  0.67775090     0.11300
H480        H  0.37730028  0.03458287  0.70298449     0.11300
H481        H  0.44065812  0.94523958  0.64039302     0.11400
H482        H  0.36712253  0.93610170  0.61506692     0.10200
loop_ 
_geom_bond_atom_site_label_1 
_geom_bond_atom_site_label_2 
_geom_bond_distance 
_geom_bond_site_symmetry_2 
_ccdc_geom_bond_type 
O1            C9   1.263       .  A
O1          Co21   1.997       .  S
O2           C10   1.281       .  A
O2         Co263   2.032       .  S
O3           C11   1.266   1_455  A
O3          Co23   1.973       .  S
O4           C12   1.264       .  A
O4         Co265   1.882       .  S
O5           C11   1.274       .  A
O5         Co263   2.019       .  S
O6           C12   1.301   1_455  A
O6          Co21   2.129       .  S
O7           C10   1.269   1_545  A
O7         Co265   1.969       .  S
O8            C9   1.263   1_565  A
O8          Co23   1.987       .  S
C9          C187   1.483       .  S
C10         C154   1.486       .  S
C11          C88   1.485       .  S
C12          C77   1.485       .  S
O13          C26   1.265       .  A
O13        Co262   1.885       .  S
O14          C27   1.266   1_655  A
O14         Co22   1.973       .  S
O15          C28   1.279       .  A
O15        Co264   2.024   1_554  S
O16          C29   1.263       .  A
O16         Co24   2.001   1_554  S
O17          C29   1.260   1_565  A
O17         Co22   1.983       .  S
O18          C28   1.271   1_545  A
O18        Co262   1.976       .  S
O19          C26   1.300   1_655  A
O19         Co24   2.123   1_554  S
O20          C27   1.275       .  A
O20        Co264   2.026   1_554  S
Co21        O254   1.885       .  S
Co21        O259   1.976       .  S
Co21         O25   1.999   1_545  S
Co22        O243   2.032   1_554  S
Co22        O246   2.019   1_554  S
Co22        O266   2.030   1_655  S
Co23        O256   2.024       .  S
Co23        O261   2.026       .  S
Co23         O25   2.031       .  S
Co24        O245   1.882       .  S
Co24        O248   1.969       .  S
Co24        O266   1.998   1_646  S
O25        Co263   2.030   1_455  S
O25        Co265   1.998   1_465  S
C26         C121   1.484       .  S
C27         C132   1.487       .  S
C28         C220   1.486       .  S
C29         C209   1.481       .  S
C30         C143   1.493       .  S
C30          C31   1.407       .  A
C30          C35   1.405       .  A
C31          C32   1.413       .  A
C31          H36   1.081       .  S
C32          C43   1.507   1_455  S
C32          C33   1.412   1_455  A
C33          C34   1.407   1_655  A
C33          H37   1.080       .  S
C34         C110   1.491       .  S
C34          C35   1.405       .  A
C35          H38   1.083       .  S
C39          C66   1.496       .  S
C39          C40   1.406       .  A
C39          C44   1.409       .  A
C40          C41   1.405       .  A
C40          H45   1.083       .  S
C41          C99   1.491       .  S
C41          C42   1.406       .  A
C42          C43   1.411       .  A
C42          H46   1.081       .  S
C43          C44   1.413       .  A
C44          H47   1.079   1_655  S
C48         C231   1.491       .  S
C48          C49   1.406   1_565  A
C48          C53   1.407       .  A
C49          C50   1.405       .  A
C49          H54   1.083       .  S
C50         C198   1.488       .  S
C50          C51   1.405       .  A
C51          C52   1.409       .  A
C51          H55   1.081       .  S
C52          C59   1.502       .  S
C52          C53   1.411   1_545  A
C53          H56   1.081       .  S
C57         C176   1.489       .  S
C57          C58   1.406       .  A
C57          C62   1.407       .  A
C58          C59   1.409       .  A
C58          H63   1.081       .  S
C59          C60   1.410       .  A
C60          C61   1.406       .  A
C60          H64   1.081   1_545  S
C61         C165   1.493   1_545  S
C61          C62   1.407       .  A
C62          H65   1.083       .  S
C66          C67   1.410       .  A
C66          C71   1.409   1_655  A
C67          C68   1.401       .  A
C67          H80   1.083       .  S
C68          C69   1.401       .  A
C68          H81   1.084       .  S
C69          C70   1.400   1_655  A
C69          C72   1.446       .  S
C70          C71   1.401       .  A
C70          H82   1.083       .  S
C71          H83   1.082       .  S
C72          C73   1.210       .  T
C73          C74   1.446       .  S
C74          C75   1.403   1_655  A
C74          C79   1.399       .  A
C75          C76   1.404       .  A
C75          H84   1.083       .  S
C76          C77   1.407   1_455  A
C76          H85   1.083       .  S
C77          C78   1.409       .  A
C78          C79   1.398       .  A
C78          H86   1.083       .  S
C79          H87   1.084       .  S
C88          C89   1.407       .  A
C88          C93   1.409       .  A
C89          C90   1.400       .  A
C89         H102   1.083   1_655  S
C90          C91   1.400       .  A
C90         H103   1.084       .  S
C91          C92   1.400       .  A
C91          C94   1.444       .  S
C92          C93   1.401       .  A
C92         H104   1.083       .  S
C93         H105   1.083       .  S
C94          C95   1.209       .  T
C95          C96   1.444       .  S
C96          C97   1.401       .  A
C96         C101   1.400       .  A
C97          C98   1.402       .  A
C97         H106   1.083       .  S
C98          C99   1.408       .  A
C98         H107   1.083       .  S
C99         C100   1.408       .  A
C100        C101   1.399       .  A
C100        H108   1.083   1_655  S
C101        H109   1.083   1_655  S
C110        C111   1.408   1_455  A
C110        C115   1.408       .  A
C111        C112   1.401       .  A
C111        H124   1.083       .  S
C112        C113   1.401   1_655  A
C112        H125   1.083       .  S
C113        C114   1.401       .  A
C113        C116   1.446       .  S
C114        C115   1.400       .  A
C114        H126   1.084       .  S
C115        H127   1.083       .  S
C116        C117   1.210       .  T
C117        C118   1.446       .  S
C118        C119   1.399       .  A
C118        C123   1.402   1_455  A
C119        C120   1.399       .  A
C119        H128   1.084       .  S
C120        C121   1.408       .  A
C120        H129   1.083       .  S
C121        C122   1.407   1_455  A
C122        C123   1.403       .  A
C122        H130   1.083       .  S
C123        H131   1.083       .  S
C132        C133   1.408       .  A
C132        C137   1.409       .  A
C133        C134   1.401       .  A
C133        H146   1.083       .  S
C134        C135   1.401       .  A
C134        H147   1.084       .  S
C135        C136   1.401       .  A
C135        C138   1.447       .  S
C136        C137   1.402       .  A
C136        H148   1.083       .  S
C137        H149   1.083       .  S
C138        C139   1.210       .  T
C139        C140   1.447       .  S
C140        C141   1.401       .  A
C140        C145   1.400       .  A
C141        C142   1.402       .  A
C141        H150   1.083       .  S
C142        C143   1.409       .  A
C142        H151   1.083       .  S
C143        C144   1.409       .  A
C144        C145   1.400       .  A
C144        H152   1.083   1_455  S
C145        H153   1.083       .  S
C154        C155   1.407       .  A
C154        C159   1.409   1_565  A
C155        C156   1.401       .  A
C155        H168   1.083       .  S
C156        C157   1.401       .  A
C156        H169   1.083       .  S
C157        C158   1.401   1_565  A
C157        C160   1.446       .  S
C158        C159   1.401       .  A
C158        H170   1.084       .  S
C159        H171   1.083       .  S
C160        C161   1.210       .  T
C161        C162   1.446       .  S
C162        C163   1.400   1_565  A
C162        C167   1.402       .  A
C163        C164   1.400       .  A
C163        H172   1.083       .  S
C164        C165   1.409   1_545  A
C164        H173   1.083       .  S
C165        C166   1.408       .  A
C166        C167   1.402       .  A
C166        H174   1.083       .  S
C167        H175   1.083       .  S
C176        C177   1.409       .  A
C176        C181   1.407       .  A
C177        C178   1.401       .  A
C177        H190   1.083       .  S
C178        C179   1.400       .  A
C178        H191   1.083       .  S
C179        C180   1.400       .  A
C179        C182   1.444       .  S
C180        C181   1.399       .  A
C180        H192   1.084   1_545  S
C181        H193   1.083   1_545  S
C182        C183   1.208       .  T
C183        C184   1.443       .  S
C184        C185   1.401       .  A
C184        C189   1.400       .  A
C185        C186   1.400       .  A
C185        H194   1.084   1_545  S
C186        C187   1.407       .  A
C186        H195   1.083   1_545  S
C187        C188   1.408       .  A
C188        C189   1.400       .  A
C188        H196   1.083       .  S
C189        H197   1.083       .  S
C198        C199   1.408       .  A
C198        C203   1.407   1_545  A
C199        C200   1.400       .  A
C199        H212   1.083       .  S
C200        C201   1.400       .  A
C200        H213   1.083       .  S
C201        C202   1.401   1_545  A
C201        C204   1.442       .  S
C202        C203   1.400       .  A
C202        H214   1.084       .  S
C203        H215   1.083       .  S
C204        C205   1.207       .  T
C205        C206   1.442       .  S
C206        C207   1.400       .  A
C206        C211   1.400       .  A
C207        C208   1.399       .  A
C207        H216   1.083       .  S
C208        C209   1.407       .  A
C208        H217   1.083       .  S
C209        C210   1.407       .  A
C210        C211   1.400       .  A
C210        H218   1.083   1_545  S
C211        H219   1.084   1_545  S
C220        C221   1.408       .  A
C220        C225   1.408   1_565  A
C221        C222   1.399       .  A
C221        H234   1.083       .  S
C222        C223   1.400       .  A
C222        H235   1.083       .  S
C223        C224   1.402       .  A
C223        C226   1.446       .  S
C224        C225   1.402   1_565  A
C224        H236   1.083   1_565  S
C225        H237   1.083       .  S
C226        C227   1.210       .  T
C227        C228   1.446       .  S
C228        C229   1.400   1_565  A
C228        C233   1.402       .  A
C229        C230   1.400       .  A
C229        H238   1.083       .  S
C230        C231   1.408   1_545  A
C230        H239   1.083       .  S
C231        C232   1.408       .  A
C232        C233   1.402       .  A
C232        H240   1.083       .  S
C233        H241   1.083       .  S
O242        C250   1.263       .  A
O242       Co262   1.997   1_556  S
O243        C251   1.281       .  A
O244        C252   1.266   1_455  A
O244       Co264   1.973       .  S
O245        C253   1.264       .  A
O246        C252   1.274       .  A
O247        C253   1.301   1_455  A
O247       Co262   2.129   1_556  S
O248        C251   1.269   1_545  A
O249        C250   1.263   1_565  A
O249       Co264   1.987       .  S
C250        C428   1.483       .  S
C251        C395   1.486       .  S
C252        C329   1.485       .  S
C253        C318   1.485       .  S
O254        C267   1.265       .  A
O255        C268   1.266   1_655  A
O255       Co263   1.973       .  S
O256        C269   1.279       .  A
O257        C270   1.263       .  A
O257       Co265   2.001       .  S
O258        C270   1.260   1_565  A
O258       Co263   1.983       .  S
O259        C269   1.271   1_545  A
O260        C267   1.300   1_655  A
O260       Co265   2.123       .  S
O261        C268   1.275       .  A
Co262       O266   1.999   1_545  S
Co264       O266   2.031   1_556  S
C267        C362   1.484       .  S
C268        C373   1.487       .  S
C269        C461   1.486       .  S
C270        C450   1.481       .  S
C271        C384   1.493       .  S
C271        C272   1.407       .  A
C271        C276   1.405       .  A
C272        C273   1.413       .  A
C272        H277   1.081       .  S
C273        C284   1.507   1_455  S
C273        C274   1.412   1_455  A
C274        C275   1.407   1_655  A
C274        H278   1.080       .  S
C275        C351   1.491       .  S
C275        C276   1.405       .  A
C276        H279   1.083       .  S
C280        C307   1.496       .  S
C280        C281   1.406       .  A
C280        C285   1.409       .  A
C281        C282   1.405       .  A
C281        H286   1.083       .  S
C282        C340   1.491       .  S
C282        C283   1.406       .  A
C283        C284   1.411       .  A
C283        H287   1.081       .  S
C284        C285   1.413       .  A
C285        H288   1.079   1_655  S
C289        C472   1.491       .  S
C289        C290   1.406   1_565  A
C289        C294   1.407       .  A
C290        C291   1.405       .  A
C290        H295   1.083       .  S
C291        C439   1.488       .  S
C291        C292   1.405       .  A
C292        C293   1.409       .  A
C292        H296   1.081       .  S
C293        C300   1.502       .  S
C293        C294   1.411   1_545  A
C294        H297   1.081       .  S
C298        C417   1.489       .  S
C298        C299   1.406       .  A
C298        C303   1.407       .  A
C299        C300   1.409       .  A
C299        H304   1.081       .  S
C300        C301   1.410       .  A
C301        C302   1.406       .  A
C301        H305   1.081   1_545  S
C302        C406   1.493   1_545  S
C302        C303   1.407       .  A
C303        H306   1.083       .  S
C307        C308   1.410       .  A
C307        C312   1.409   1_655  A
C308        C309   1.401       .  A
C308        H321   1.083       .  S
C309        C310   1.401       .  A
C309        H322   1.084       .  S
C310        C311   1.400   1_655  A
C310        C313   1.446       .  S
C311        C312   1.401       .  A
C311        H323   1.083       .  S
C312        H324   1.082       .  S
C313        C314   1.210       .  T
C314        C315   1.446       .  S
C315        C316   1.403   1_655  A
C315        C320   1.399       .  A
C316        C317   1.404       .  A
C316        H325   1.083       .  S
C317        C318   1.407   1_455  A
C317        H326   1.083       .  S
C318        C319   1.409       .  A
C319        C320   1.398       .  A
C319        H327   1.083       .  S
C320        H328   1.084       .  S
C329        C330   1.407       .  A
C329        C334   1.409       .  A
C330        C331   1.400       .  A
C330        H343   1.083   1_655  S
C331        C332   1.400       .  A
C331        H344   1.084       .  S
C332        C333   1.400       .  A
C332        C335   1.444       .  S
C333        C334   1.401       .  A
C333        H345   1.083       .  S
C334        H346   1.083       .  S
C335        C336   1.209       .  T
C336        C337   1.444       .  S
C337        C338   1.401       .  A
C337        C342   1.400       .  A
C338        C339   1.402       .  A
C338        H347   1.083       .  S
C339        C340   1.408       .  A
C339        H348   1.083       .  S
C340        C341   1.408       .  A
C341        C342   1.399       .  A
C341        H349   1.083   1_655  S
C342        H350   1.083   1_655  S
C351        C352   1.408   1_455  A
C351        C356   1.408       .  A
C352        C353   1.401       .  A
C352        H365   1.083       .  S
C353        C354   1.401   1_655  A
C353        H366   1.083       .  S
C354        C355   1.401       .  A
C354        C357   1.446       .  S
C355        C356   1.400       .  A
C355        H367   1.084       .  S
C356        H368   1.083       .  S
C357        C358   1.210       .  T
C358        C359   1.446       .  S
C359        C360   1.399       .  A
C359        C364   1.402   1_455  A
C360        C361   1.399       .  A
C360        H369   1.084       .  S
C361        C362   1.408       .  A
C361        H370   1.083       .  S
C362        C363   1.407   1_455  A
C363        C364   1.403       .  A
C363        H371   1.083       .  S
C364        H372   1.083       .  S
C373        C374   1.408       .  A
C373        C378   1.409       .  A
C374        C375   1.401       .  A
C374        H387   1.083       .  S
C375        C376   1.401       .  A
C375        H388   1.084       .  S
C376        C377   1.401       .  A
C376        C379   1.447       .  S
C377        C378   1.402       .  A
C377        H389   1.083       .  S
C378        H390   1.083       .  S
C379        C380   1.210       .  T
C380        C381   1.447       .  S
C381        C382   1.401       .  A
C381        C386   1.400       .  A
C382        C383   1.402       .  A
C382        H391   1.083       .  S
C383        C384   1.409       .  A
C383        H392   1.083       .  S
C384        C385   1.409       .  A
C385        C386   1.400       .  A
C385        H393   1.083   1_455  S
C386        H394   1.083       .  S
C395        C396   1.407       .  A
C395        C400   1.409   1_565  A
C396        C397   1.401       .  A
C396        H409   1.083       .  S
C397        C398   1.401       .  A
C397        H410   1.083       .  S
C398        C399   1.401   1_565  A
C398        C401   1.446       .  S
C399        C400   1.401       .  A
C399        H411   1.084       .  S
C400        H412   1.083       .  S
C401        C402   1.210       .  T
C402        C403   1.446       .  S
C403        C404   1.400   1_565  A
C403        C408   1.402       .  A
C404        C405   1.400       .  A
C404        H413   1.083       .  S
C405        C406   1.409   1_545  A
C405        H414   1.083       .  S
C406        C407   1.408       .  A
C407        C408   1.402       .  A
C407        H415   1.083       .  S
C408        H416   1.083       .  S
C417        C418   1.409       .  A
C417        C422   1.407       .  A
C418        C419   1.401       .  A
C418        H431   1.083       .  S
C419        C420   1.400       .  A
C419        H432   1.083       .  S
C420        C421   1.400       .  A
C420        C423   1.444       .  S
C421        C422   1.399       .  A
C421        H433   1.084   1_545  S
C422        H434   1.083   1_545  S
C423        C424   1.208       .  T
C424        C425   1.443       .  S
C425        C426   1.401       .  A
C425        C430   1.400       .  A
C426        C427   1.400       .  A
C426        H435   1.084   1_545  S
C427        C428   1.407       .  A
C427        H436   1.083   1_545  S
C428        C429   1.408       .  A
C429        C430   1.400       .  A
C429        H437   1.083       .  S
C430        H438   1.083       .  S
C439        C440   1.408       .  A
C439        C444   1.407   1_545  A
C440        C441   1.400       .  A
C440        H453   1.083       .  S
C441        C442   1.400       .  A
C441        H454   1.083       .  S
C442        C443   1.401   1_545  A
C442        C445   1.442       .  S
C443        C444   1.400       .  A
C443        H455   1.084       .  S
C444        H456   1.083       .  S
C445        C446   1.207       .  T
C446        C447   1.442       .  S
C447        C448   1.400       .  A
C447        C452   1.400       .  A
C448        C449   1.399       .  A
C448        H457   1.083       .  S
C449        C450   1.407       .  A
C449        H458   1.083       .  S
C450        C451   1.407       .  A
C451        C452   1.400       .  A
C451        H459   1.083   1_545  S
C452        H460   1.084   1_545  S
C461        C462   1.408       .  A
C461        C466   1.408   1_565  A
C462        C463   1.399       .  A
C462        H475   1.083       .  S
C463        C464   1.400       .  A
C463        H476   1.083       .  S
C464        C465   1.402       .  A
C464        C467   1.446       .  S
C465        C466   1.402   1_565  A
C465        H477   1.083   1_565  S
C466        H478   1.083       .  S
C467        C468   1.210       .  T
C468        C469   1.446       .  S
C469        C470   1.400   1_565  A
C469        C474   1.402       .  A
C470        C471   1.400       .  A
C470        H479   1.083       .  S
C471        C472   1.408   1_545  A
C471        H480   1.083       .  S
C472        C473   1.408       .  A
C473        C474   1.402       .  A
C473        H481   1.083       .  S
C474        H482   1.083       .  S
