geometry optimzed in LAMMPS
_audit_creation_date              2020-12-01 
_audit_creation_method            'lammps2cif' 
_symmetry_space_group_name_H-M    'P1' 
_symmetry_Int_Tables_number       1 
_symmetry_cell_setting            triclinic 
loop_ 
_symmetry_equiv_pos_as_xyz 
  x,y,z 
_cell_length_a                    38.49116713 
_cell_length_b                    38.488655383996 
_cell_length_c                    34.181410394222574 
_cell_angle_alpha                 90.50125143386312 
_cell_angle_beta                  90.27231698052006 
_cell_angle_gamma                 90.97470382580586 
loop_ 
_atom_site_label 
_atom_site_type_symbol 
_atom_site_fract_x 
_atom_site_fract_y 
_atom_site_fract_z 
_atom_site_charge 
C1          C  0.01053715  0.46254051  0.86007412     0.06300
C2          C  0.00944621  0.49426917  0.84031081    -0.09900
C3          C  0.01054913  0.02741948  0.85930360     0.03800
C4          C  0.51232767  0.03264179  0.89844504    -0.08400
C5          C  0.51053677  0.00267546  0.92137254     0.06300
C6          C  0.50842326  0.46904396  0.90354568    -0.07800
H7          H  0.00918457  0.49458765  0.80862117     0.11900
H8          H  0.51472039  0.05796625  0.91244106     0.09400
H9          H  0.50732155  0.44519557  0.92015570     0.09200
C10         C  0.28730720  0.24466647  0.58701660     0.06300
C11         C  0.28567688  0.24134609  0.54613102    -0.09900
C12         C  0.25338301  0.23675855  0.52713512     0.03800
C13         C  0.22291092  0.23554060  0.54941180    -0.08400
C14         C  0.22438384  0.23972773  0.59009046     0.06300
C15         C  0.25658678  0.24418993  0.60892441    -0.07800
H16         H  0.30947524  0.24147770  0.52930407     0.11900
H17         H  0.19794417  0.23194020  0.53497270     0.09400
H18         H  0.25775650  0.24696648  0.64047807     0.09200
O19         O  0.46841328  0.25134278  0.66689232    -0.54700
C20         C  0.07193560  0.24236476  0.68358386     0.78000
O21         O  0.00533046  0.28118206  0.78244970    -0.55800
C22         C  0.43939950  0.24852537  0.68379557     0.77900
C23         C  0.00628894  0.17823369  0.76313243     0.80300
Cd24       Cd  0.00594070  0.24392115  0.72302732     1.37500
O25         O  0.04391349  0.23486745  0.66580357    -0.54700
O26         O  0.50751847  0.18519677  0.72851534    -0.53500
C27         C  0.50239796  0.31388825  0.76969543     0.80300
O28         O  0.50259035  0.21034338  0.78474739    -0.55800
O29         O  0.06967422  0.25084103  0.71924067    -0.54300
O30         O  0.43995734  0.24575315  0.72059072    -0.54300
O31         O  0.00675432  0.30798701  0.72736906    -0.53500
O32         O  0.20300939  0.99864951  0.16597845    -0.54700
C33         C  0.31019355  0.49740742  0.18500397     0.78000
O34         O  0.24152511  0.03651753  0.28240763    -0.55800
C35         C  0.17484700  0.99729682  0.18478569     0.77900
C36         C  0.24554778  0.43330487  0.26348169     0.80300
Cd37       Cd  0.24444209  0.49922054  0.22466789     1.37500
O38         O  0.28181897  0.49687768  0.16620861    -0.54700
O39         O  0.24499000  0.43535299  0.22662661    -0.53500
C40         C  0.24235207  0.06448681  0.26332627     0.80300
O41         O  0.24503918  0.46151297  0.28269547    -0.55800
O42         O  0.30840511  0.49911689  0.22185958    -0.54300
O43         O  0.17706851  0.99587319  0.22158582    -0.54300
O44         O  0.24267283  0.06194885  0.22645348    -0.53500
C45         C  0.02068383  0.99468256  0.09326576     0.06300
C46         C  0.98913957  0.99571147  0.11349698    -0.09900
C47         C  0.45972491  0.99653538  0.09233606     0.03800
C48         C  0.46010571  0.99191069  0.05163993    -0.08400
C49         C  0.98919858  0.98722002  0.03178596     0.06300
C50         C  0.02069051  0.99074184  0.05251862    -0.07800
H51         H  0.98912363  0.99907103  0.14500602     0.11900
H52         H  0.43588069  0.98765974  0.03586736     0.09400
H53         H  0.04519034  0.98977888  0.03706228     0.09200
C54         C  0.25235386  0.21807397  0.35626529     0.06300
C55         C  0.25126703  0.24929091  0.33558316    -0.09900
C56         C  0.25657317  0.28100238  0.35527755     0.03800
C57         C  0.26333362  0.28148488  0.39556644    -0.08400
C58         C  0.26365140  0.25040603  0.41665529     0.06300
C59         C  0.25816548  0.21862373  0.39677850    -0.07800
H60         H  0.24638916  0.24890552  0.30432816     0.11900
H61         H  0.26743503  0.30609492  0.41069977     0.09400
H62         H  0.25901808  0.19438315  0.41263830     0.09200
C63         C  0.34305509  0.49598782  0.16541927    -0.15400
C64         C  0.37079014  0.49460003  0.14927721     0.08700
C65         C  0.40329257  0.49301707  0.13041407     0.10600
C66         C  0.43092190  0.49199208  0.11400099    -0.16200
C67         C  0.05320564  0.99688817  0.11419882    -0.15400
C68         C  0.08094807  0.99771895  0.13072931     0.08700
C69         C  0.11373272  0.99780733  0.14941649     0.10600
C70         C  0.14174114  0.99753635  0.16532749    -0.16200
C71         C  0.24712158  0.40035445  0.28261941    -0.15400
C72         C  0.24919073  0.37268715  0.29861528     0.08700
C73         C  0.25203400  0.34047032  0.31763470     0.10600
C74         C  0.25437604  0.31318888  0.33439077    -0.16200
C75         C  0.24824540  0.18541039  0.33579742    -0.15400
C76         C  0.24583273  0.15790116  0.31879800     0.08700
C77         C  0.24398945  0.12549915  0.29919590     0.10600
C78         C  0.24302404  0.09769198  0.28271145    -0.16200
C79         C  0.25063859  0.23251779  0.48416870    -0.13300
C80         C  0.26963723  0.25185807  0.45942259    -0.28500
H81         H  0.23009728  0.21556820  0.47260051     0.15700
H82         H  0.28742034  0.27167509  0.47099386     0.16300
C83         C  0.19262122  0.23958661  0.61221183    -0.15400
C84         C  0.16526212  0.23978836  0.62925638     0.08700
C85         C  0.13275401  0.24042216  0.64821953     0.10600
C86         C  0.10492102  0.24124856  0.66421998    -0.16200
C87         C  0.40722580  0.24856398  0.66218870    -0.15400
C88         C  0.38009122  0.24861777  0.64429888     0.08700
C89         C  0.34808009  0.24832859  0.62373994     0.10600
C90         C  0.32052314  0.24730679  0.60668448    -0.16200
C91         C  0.00970715  0.00199357  0.96570712    -0.13300
C92         C  0.98882388  0.98286485  0.98875556    -0.28500
H93         H  0.02605148  0.47193046  0.97933755     0.15700
H94         H  0.47140489  0.97108223  0.97547983     0.16300
C95         C  0.01110366  0.05895330  0.83686971    -0.15400
C96         C  0.01047859  0.08596270  0.81925047     0.08700
C97         C  0.00893022  0.11799786  0.79947983     0.10600
C98         C  0.00748616  0.14548862  0.78290983    -0.16200
C99         C  0.50328951  0.43442081  0.84297969    -0.15400
C100        C  0.50178828  0.40654808  0.82667669     0.08700
C101        C  0.50122773  0.37396170  0.80744452     0.10600
C102        C  0.50152066  0.34635215  0.79056426    -0.16200
C103        C  0.00645037  0.96446081  0.86260112     0.06300
C104        C  0.00833744  0.99494892  0.84048238    -0.09900
C105        C  0.00866242  0.52558828  0.86153123     0.03800
C106        C  0.51514509  0.53172028  0.90091131    -0.08400
C107        C  0.51271969  0.50121514  0.92291401     0.06300
C108        C  0.50739155  0.96992515  0.90301244    -0.07800
H109        H  0.00808688  0.99341307  0.80881584     0.11900
H110        H  0.51842779  0.55663889  0.91563078     0.09400
H111        H  0.50666962  0.94653987  0.92045885     0.09200
C112        C  0.28729254  0.73278042  0.59318255     0.06300
C113        C  0.28795854  0.73020978  0.55227760    -0.09900
C114        C  0.25709016  0.73216881  0.53046729     0.03800
C115        C  0.22530220  0.73566596  0.55009304    -0.08400
C116        C  0.22448570  0.73740941  0.59102359     0.06300
C117        C  0.25551398  0.73620739  0.61255899    -0.07800
H118        H  0.31258216  0.72758667  0.53735034     0.11900
H119        H  0.20118139  0.73644564  0.53362287     0.09400
H120        H  0.25493819  0.73800615  0.64419672     0.09200
O121        O  0.46710661  0.75162218  0.67044921    -0.54700
C122        C  0.07274240  0.74354461  0.68574096     0.78000
O123        O  0.00558176  0.78136244  0.78827348    -0.55800
C124        C  0.43978164  0.74269550  0.68840105     0.77900
C125        C  0.00966770  0.67861429  0.76927996     0.80300
Cd126      Cd  0.00846724  0.74411571  0.72888857     1.37500
O127        O  0.04364515  0.74211668  0.66851630    -0.54700
O128        O  0.51161568  0.68427931  0.72964302    -0.53500
C129        C  0.50243838  0.81255218  0.77073549     0.80300
O130        O  0.50679663  0.70988385  0.78570091    -0.55800
O131        O  0.07241910  0.74524329  0.72265663    -0.54300
O132        O  0.44278623  0.73645615  0.72446198    -0.54300
O133        O  0.00992802  0.80836532  0.73360223    -0.53500
O134        O  0.20607777  0.50147541  0.16663412    -0.54700
C135        C  0.30673839  0.99721314  0.18489204     0.78000
O136        O  0.24461537  0.53767285  0.28307319    -0.55800
C137        C  0.17799998  0.49858365  0.18544070     0.77900
C138        C  0.24190570  0.93334496  0.26615881     0.80300
Cd139      Cd  0.24102871  0.99791818  0.22452833     1.37500
O140        O  0.27842240  0.99324542  0.16635668    -0.54700
O141        O  0.24557827  0.93438025  0.22949272    -0.53500
C142        C  0.24614111  0.56574831  0.26419563     0.80300
O143        O  0.23774987  0.96192827  0.28382903    -0.55800
O144        O  0.30488811  0.00164491  0.22149433    -0.54300
O145        O  0.18036763  0.49590966  0.22216205    -0.54300
O146        O  0.24677999  0.56332705  0.22733316    -0.53500
C147        C  0.02449440  0.50497036  0.09294451     0.06300
C148        C  0.99323172  0.50693754  0.11359844    -0.09900
C149        C  0.46356183  0.49157240  0.09359860     0.03800
C150        C  0.46393185  0.48682993  0.05293703    -0.08400
C151        C  0.99293677  0.51133868  0.03159489     0.06300
C152        C  0.02430774  0.50688017  0.05204014    -0.07800
H153        H  0.99331212  0.50514677  0.14521974     0.11900
H154        H  0.43968417  0.48281572  0.03713621     0.09400
H155        H  0.04859748  0.50552750  0.03622947     0.09200
C156        C  0.24702235  0.71870286  0.35924487     0.06300
C157        C  0.24655646  0.75031365  0.33926552    -0.09900
C158        C  0.24348387  0.78157763  0.36013873     0.03800
C159        C  0.24061821  0.78122405  0.40094964    -0.08400
C160        C  0.24189423  0.74976967  0.42125523     0.06300
C161        C  0.24506361  0.71844663  0.40018109    -0.07800
H162        H  0.24828748  0.75056297  0.30763390     0.11900
H163        H  0.23800166  0.80546621  0.41697315     0.09400
H164        H  0.24516947  0.69390370  0.41547894     0.09200
C165        C  0.33960969  0.99668773  0.16526858    -0.15400
C166        C  0.36729434  0.99628992  0.14893199     0.08700
C167        C  0.39967032  0.99600673  0.12969054     0.10600
C168        C  0.42716603  0.99604204  0.11293049    -0.16200
C169        C  0.05694026  0.50178596  0.11367656    -0.15400
C170        C  0.08447201  0.50005757  0.13048021     0.08700
C171        C  0.11698987  0.49891799  0.14971366     0.10600
C172        C  0.14484858  0.49851802  0.16598879    -0.16200
C173        C  0.24240625  0.90107175  0.28676162    -0.15400
C174        C  0.24279027  0.87372957  0.30363223     0.08700
C175        C  0.24310807  0.84156900  0.32308523     0.10600
C176        C  0.24325941  0.81412184  0.33976162    -0.16200
C177        C  0.24842979  0.68641508  0.33772003    -0.15400
C178        C  0.24858476  0.65909536  0.32016973     0.08700
C179        C  0.24797465  0.62676226  0.30027384     0.10600
C180        C  0.24715657  0.59894654  0.28373107    -0.16200
C181        C  0.25860409  0.73014187  0.48725977    -0.13300
C182        C  0.23896672  0.75022190  0.46437566    -0.28500
H183        H  0.27812610  0.71373933  0.47403389     0.15700
H184        H  0.22223671  0.76943365  0.47771175     0.16300
C185        C  0.19170148  0.74005224  0.61088611    -0.15400
C186        C  0.16414540  0.74158021  0.62740302     0.08700
C187        C  0.13198192  0.74267323  0.64705607     0.10600
C188        C  0.10477461  0.74319760  0.66438662    -0.16200
C189        C  0.40677142  0.73966060  0.66873053    -0.15400
C190        C  0.37905026  0.73706190  0.65222960     0.08700
C191        C  0.34672476  0.73446443  0.63252392     0.10600
C192        C  0.31940843  0.73306786  0.61506179    -0.16200
C193        C  0.01099613  0.49225597  0.96577357    -0.13300
C194        C  0.99224021  0.51355848  0.98841424    -0.28500
H195        H  0.02632186  0.02212720  0.97872486     0.15700
H196        H  0.47543493  0.46660829  0.97652051     0.16300
C197        C  0.00840611  0.55832299  0.84136849    -0.15400
C198        C  0.00862223  0.58597097  0.82499079     0.08700
C199        C  0.00916549  0.61840952  0.80591630     0.10600
C200        C  0.00959674  0.64598716  0.78939275    -0.16200
C201        C  0.50398118  0.93363648  0.84335506    -0.15400
C202        C  0.50279797  0.90549332  0.82752441     0.08700
C203        C  0.50189158  0.87272509  0.80852669     0.10600
C204        C  0.50167861  0.84504312  0.79168691    -0.16200
C205        C  0.50638548  0.46753910  0.86264057     0.06300
C206        C  0.50808885  0.49819355  0.84090801    -0.09900
C207        C  0.50992445  0.03018186  0.85764890     0.03800
C208        C  0.01131879  0.02935229  0.90021833    -0.08400
C209        C  0.00870102  0.99905525  0.92257114     0.06300
C210        C  0.01127557  0.46221845  0.90105374    -0.07800
H211        H  0.50618722  0.49707348  0.80927669     0.11900
H212        H  0.01321743  0.05449366  0.91470244     0.09400
H213        H  0.01233035  0.43765506  0.91627168     0.09200
C214        C  0.78609037  0.25389372  0.59164772     0.06300
C215        C  0.78321912  0.25225445  0.55075799    -0.09900
C216        C  0.75034697  0.24915500  0.53281307     0.03800
C217        C  0.72051945  0.24784207  0.55614441    -0.08400
C218        C  0.72326499  0.25051514  0.59691268     0.06300
C219        C  0.75606271  0.25337758  0.61470968    -0.07800
H220        H  0.80650647  0.25235334  0.53304849     0.11900
H221        H  0.69510531  0.24530391  0.54249861     0.09400
H222        H  0.75822013  0.25484015  0.64630545     0.09200
O223        O  0.96960736  0.25065724  0.66386260    -0.54700
C224        C  0.57107929  0.25062053  0.69049172     0.78000
O225        O  0.50037190  0.28515996  0.78722380    -0.55800
C226        C  0.94089596  0.24689019  0.68121355     0.77900
C227        C  0.50555712  0.18252425  0.76522937     0.80300
Cd228      Cd  0.50403389  0.24897713  0.72735217     1.37500
O229        O  0.54337798  0.24804665  0.67059663    -0.54700
O230        O  0.00451031  0.17980529  0.72629480    -0.53500
C231        C  0.00618938  0.30966367  0.76429359     0.80300
O232        O  0.00727785  0.20675179  0.78173453    -0.55800
O233        O  0.56803419  0.25280737  0.72720667    -0.54300
O234        O  0.94200938  0.24130323  0.71756559    -0.54300
O235        O  0.50527485  0.31283019  0.73290920    -0.53500
O236        O  0.70324747  0.01098428  0.16947185    -0.54700
C237        C  0.81028360  0.51368013  0.18862581     0.78000
O238        O  0.74082317  0.04961923  0.28634264    -0.55800
C239        C  0.67492621  0.01198671  0.18795454     0.77900
C240        C  0.74652852  0.44643370  0.26733879     0.80300
Cd241      Cd  0.74467525  0.51263522  0.22859834     1.37500
O242        O  0.78183171  0.51416669  0.17004619    -0.54700
O243        O  0.74273338  0.44853935  0.23072140    -0.53500
C244        C  0.74407734  0.07762960  0.26761283     0.80300
O245        O  0.74917771  0.47467191  0.28634953    -0.55800
O246        O  0.80866642  0.51274974  0.22551436    -0.54300
O247        O  0.67681505  0.01287994  0.22485758    -0.54300
O248        O  0.74610829  0.07513618  0.23080751    -0.53500
C249        C  0.52257584  0.00264615  0.09270671     0.06300
C250        C  0.49098022  0.00179187  0.11287605    -0.09900
C251        C  0.95761688  0.99222103  0.09301596     0.03800
C252        C  0.95771213  0.98745906  0.05230493    -0.08400
C253        C  0.49157612  0.99339180  0.03111871     0.06300
C254        C  0.52285480  0.99875408  0.05191952    -0.07800
H255        H  0.49073523  0.00496897  0.14440415     0.11900
H256        H  0.93332118  0.98471224  0.03650702     0.09400
H257        H  0.54743879  0.99903292  0.03658803     0.09200
C258        C  0.75116066  0.23120150  0.36184962     0.06300
C259        C  0.75049331  0.26223035  0.34072944    -0.09900
C260        C  0.75455192  0.29421922  0.36023446     0.03800
C261        C  0.75961711  0.29516575  0.40083921    -0.08400
C262        C  0.75959852  0.26429146  0.42233854     0.06300
C263        C  0.75533581  0.23224682  0.40261828    -0.07800
H264        H  0.74699427  0.26148035  0.30925969     0.11900
H265        H  0.76293892  0.31995604  0.41581619     0.09400
H266        H  0.75608564  0.20817171  0.41879623     0.09200
C267        C  0.84301538  0.51406230  0.16869025    -0.15400
C268        C  0.87045503  0.51407885  0.15182924     0.08700
C269        C  0.90247103  0.51368114  0.13185734     0.10600
C270        C  0.92966368  0.51294637  0.11452913    -0.16200
C271        C  0.55486813  0.00652530  0.11389302    -0.15400
C272        C  0.58220161  0.00886457  0.13118919     0.08700
C273        C  0.61443377  0.01076899  0.15108440     0.10600
C274        C  0.64204108  0.01173702  0.16792820    -0.16200
C275        C  0.74799012  0.41340030  0.28643092    -0.15400
C276        C  0.74957686  0.38568189  0.30247006     0.08700
C277        C  0.75159134  0.35342575  0.32167397     0.10600
C278        C  0.75316277  0.32620774  0.33875826    -0.16200
C279        C  0.74845782  0.19825684  0.34154149    -0.15400
C280        C  0.74704924  0.17072461  0.32437215     0.08700
C281        C  0.74601231  0.13844927  0.30426468     0.10600
C282        C  0.74524488  0.11078983  0.28732832    -0.16200
C283        C  0.74653612  0.24603915  0.48984782    -0.13300
C284        C  0.76491905  0.26609083  0.46522406    -0.28500
H285        H  0.72626514  0.22875969  0.47830913     0.15700
H286        H  0.78242311  0.28608545  0.47696378     0.16300
C287        C  0.69217939  0.25038354  0.62016459    -0.15400
C288        C  0.66511147  0.25051964  0.63775301     0.08700
C289        C  0.63262362  0.25076164  0.65672022     0.10600
C290        C  0.60456370  0.25086083  0.67222278    -0.16200
C291        C  0.90839997  0.24916229  0.66066138    -0.15400
C292        C  0.88078220  0.25134417  0.64412495     0.08700
C293        C  0.84806350  0.25357327  0.62549517     0.10600
C294        C  0.81988577  0.25452478  0.60998114    -0.16200
C295        C  0.51248168  0.00627916  0.96441832    -0.13300
C296        C  0.49123352  0.98825806  0.98814002    -0.28500
H297        H  0.53177416  0.52381990  0.97878571     0.15700
H298        H  0.96944312  0.96544475  0.97565691     0.16300
C299        C  0.50972836  0.06147255  0.83489650    -0.15400
C300        C  0.50898925  0.08870884  0.81779657     0.08700
C301        C  0.50780182  0.12129386  0.79926308     0.10600
C302        C  0.50671570  0.14930302  0.78385133    -0.16200
C303        C  0.01020581  0.43017394  0.83847402    -0.15400
C304        C  0.00922932  0.40268715  0.82118609     0.08700
C305        C  0.00779278  0.37023953  0.80145005     0.10600
C306        C  0.00678965  0.34251959  0.78464946    -0.16200
C307        C  0.50600323  0.96731847  0.86208644     0.06300
C308        C  0.50696824  0.99750805  0.83941342    -0.09900
C309        C  0.51230146  0.53029145  0.86008298     0.03800
C310        C  0.00856212  0.52512253  0.90251332    -0.08400
C311        C  0.00985013  0.49340282  0.92252195     0.06300
C312        C  0.00624766  0.96654580  0.90356951    -0.07800
H313        H  0.50542652  0.99558614  0.80780579     0.11900
H314        H  0.00828906  0.54945246  0.91873717     0.09400
H315        H  0.00501146  0.94292011  0.92057133     0.09200
C316        C  0.78795585  0.74313424  0.59743183     0.06300
C317        C  0.78813696  0.74155764  0.55647198    -0.09900
C318        C  0.75714648  0.74485783  0.53517517     0.03800
C319        C  0.72567643  0.74873637  0.55535883    -0.08400
C320        C  0.72528810  0.74945451  0.59635319     0.06300
C321        C  0.75649077  0.74691691  0.61738876    -0.07800
H322        H  0.81250162  0.73851072  0.54112011     0.11900
H323        H  0.70143514  0.75044963  0.53925401     0.09400
H324        H  0.75628209  0.74783651  0.64907440     0.09200
O325        O  0.96981118  0.74689429  0.67102640    -0.54700
C326        C  0.57181898  0.75225437  0.68794407     0.78000
O327        O  0.50693340  0.78412878  0.78812524    -0.55800
C328        C  0.94186161  0.74304357  0.68986103     0.77900
C329        C  0.50992613  0.68195171  0.76642398     0.80300
Cd330      Cd  0.50604453  0.74783425  0.72805039     1.37500
O331        O  0.54375722  0.74621330  0.66958126    -0.54700
O332        O  0.00417305  0.68012443  0.73287382    -0.53500
C333        C  0.00739110  0.80991336  0.77039908     0.80300
O334        O  0.01500494  0.70708189  0.78718569    -0.55800
O335        O  0.56971481  0.75650943  0.72452314    -0.54300
O336        O  0.94443435  0.73979266  0.72649555    -0.54300
O337        O  0.49909321  0.81121181  0.73396420    -0.53500
O338        O  0.70752729  0.51185666  0.16941599    -0.54700
C339        C  0.80626171  0.00552823  0.18781918     0.78000
O340        O  0.73898906  0.55017416  0.28722402    -0.55800
C341        C  0.67906767  0.51203697  0.18767565     0.77900
C342        C  0.73802401  0.94577142  0.26942041     0.80300
Cd343      Cd  0.74088173  0.01087524  0.22825379     1.37500
O344        O  0.77780151  0.00706914  0.16939773    -0.54700
O345        O  0.73504343  0.94704913  0.23265820    -0.53500
C346        C  0.74460575  0.57839574  0.26952316     0.80300
O347        O  0.74204044  0.97436197  0.28747212    -0.55800
O348        O  0.80483469  0.00692899  0.22471189    -0.54300
O349        O  0.68068757  0.51266235  0.22458821    -0.54300
O350        O  0.75012809  0.57645268  0.23318637    -0.53500
C351        C  0.52641948  0.49770091  0.09390246     0.06300
C352        C  0.49483851  0.49681150  0.11412418    -0.09900
C353        C  0.96189427  0.51148170  0.09340673     0.03800
C354        C  0.96185463  0.51420579  0.05255197    -0.08400
C355        C  0.49537622  0.48835075  0.03241934     0.06300
C356        C  0.52667123  0.49369425  0.05313909    -0.07800
H357        H  0.49459178  0.50031053  0.14561073     0.11900
H358        H  0.93757930  0.51778146  0.03700993     0.09400
H359        H  0.55120109  0.49425969  0.03769046     0.09200
C360        C  0.74344240  0.73138802  0.36447120     0.06300
C361        C  0.74177496  0.76270506  0.34401540    -0.09900
C362        C  0.73913919  0.79423086  0.36449876     0.03800
C363        C  0.73797208  0.79438175  0.40547237    -0.08400
C364        C  0.74036005  0.76319963  0.42622808     0.06300
C365        C  0.74302293  0.73165364  0.40545962    -0.07800
H366        H  0.74231076  0.76252488  0.31231832     0.11900
H367        H  0.73572021  0.81879822  0.42123251     0.09400
H368        H  0.74391725  0.70728962  0.42105899     0.09200
C369        C  0.83876394  0.00218891  0.16772878    -0.15400
C370        C  0.86601207  0.99929901  0.15079006     0.08700
C371        C  0.89790731  0.99620941  0.13082864     0.10600
C372        C  0.92513044  0.99404581  0.11368526    -0.16200
C373        C  0.55869491  0.50261832  0.11485014    -0.15400
C374        C  0.58615812  0.50615891  0.13164282     0.08700
C375        C  0.61859842  0.50938099  0.15089046     0.10600
C376        C  0.64630095  0.51114282  0.16745417    -0.16200
C377        C  0.73714124  0.91323317  0.28969593    -0.15400
C378        C  0.73691840  0.88581150  0.30653175     0.08700
C379        C  0.73718762  0.85374254  0.32634349     0.10600
C380        C  0.73782992  0.82651247  0.34353087    -0.16200
C381        C  0.74472737  0.69883481  0.34344776    -0.15400
C382        C  0.74508921  0.67133404  0.32628139     0.08700
C383        C  0.74500206  0.63894312  0.30653408     0.10600
C384        C  0.74477932  0.61124978  0.28974839    -0.16200
C385        C  0.75813205  0.74328584  0.49191145    -0.13300
C386        C  0.73877363  0.76406535  0.46950213    -0.28500
H387        H  0.77686765  0.72626102  0.47823644     0.15700
H388        H  0.72287618  0.78373108  0.48329834     0.16300
C389        C  0.69270509  0.75212760  0.61671213    -0.15400
C390        C  0.66507063  0.75351656  0.63313749     0.08700
C391        C  0.63249773  0.75415639  0.65204732     0.10600
C392        C  0.60470752  0.75379284  0.66824893    -0.16200
C393        C  0.90863022  0.74234351  0.67053869    -0.15400
C394        C  0.88063893  0.74175315  0.65449402     0.08700
C395        C  0.84792075  0.74137361  0.63554603     0.10600
C396        C  0.82028717  0.74168007  0.61875336    -0.16200
C397        C  0.51511696  0.50359328  0.96603496    -0.13300
C398        C  0.49488901  0.48407664  0.98939728    -0.28500
H399        H  0.52968051  0.02630251  0.97664348     0.15700
H400        H  0.97419922  0.53136935  0.97497146     0.16300
C401        C  0.51291676  0.56196135  0.83808962    -0.15400
C402        C  0.51274580  0.58906768  0.82076558     0.08700
C403        C  0.51209033  0.62126755  0.80147630     0.10600
C404        C  0.51128671  0.64897363  0.78543677    -0.16200
C405        C  0.00540505  0.93098547  0.84328459    -0.15400
C406        C  0.00529913  0.90299209  0.82706647     0.08700
C407        C  0.00581349  0.87034291  0.80777017     0.10600
C408        C  0.00652534  0.84266216  0.79092740    -0.16200
loop_ 
_geom_bond_atom_site_label_1 
_geom_bond_atom_site_label_2 
_geom_bond_distance 
_geom_bond_site_symmetry_2 
_ccdc_geom_bond_type 
C1            C2   1.402       .  A
C1          C210   1.401       .  A
C1          C303   1.442       .  S
C2          C105   1.402       .  A
C2            H7   1.083       .  S
C3          C104   1.402   1_545  A
C3          C208   1.400       .  A
C3           C95   1.441       .  S
C4            C5   1.401       .  A
C4          C207   1.399       .  A
C4            H8   1.084       .  S
C5          C108   1.406   1_545  A
C5          C295   1.478       .  S
C6          C205   1.401       .  A
C6          C107   1.406       .  A
C6            H9   1.084       .  S
C10          C11   1.403       .  A
C10          C15   1.403       .  A
C10          C90   1.443       .  S
C11          C12   1.407       .  A
C11          H16   1.084       .  S
C12          C13   1.402       .  A
C12          C79   1.479       .  S
C13          C14   1.399       .  A
C13          H17   1.084       .  S
C14          C15   1.401       .  A
C14          C83   1.441       .  S
C15          H18   1.084       .  S
O19          C22   1.263       .  A
O19        Cd228   2.478       .  S
C20          C86   1.436       .  S
C20          O29   1.263       .  A
C20          O25   1.263       .  A
O21         C231   1.264       .  A
O21         Cd24   2.477       .  S
C22          C87   1.439       .  S
C22          O30   1.263       .  A
C23          C98   1.437       .  S
C23         O232   1.264       .  A
C23         O230   1.263       .  A
Cd24         O31   2.469       .  S
Cd24         O29   2.467       .  S
Cd24         O25   2.473       .  S
Cd24        O223   2.471   1_455  S
Cd24        O234   2.467   1_455  S
Cd24        O232   2.475       .  S
Cd24        O230   2.471       .  S
O26         C227   1.263       .  A
O26        Cd228   2.461       .  S
C27         C102   1.434       .  S
C27         O225   1.264       .  A
C27         O235   1.263       .  A
O28         C227   1.264       .  A
O28        Cd228   2.472       .  S
O30        Cd228   2.477       .  S
O31         C231   1.264       .  A
O32          C35   1.263       .  A
O32        Cd139   2.474       .  S
C33          C63   1.436       .  S
C33          O42   1.263       .  A
C33          O38   1.264       .  A
O34          C40   1.264       .  A
O34        Cd139   2.463   1_545  S
C35          C70   1.435       .  S
C35          O43   1.262       .  A
C36          C71   1.434       .  S
C36          O41   1.264       .  A
C36          O39   1.263       .  A
Cd37         O42   2.464       .  S
Cd37         O38   2.470       .  S
Cd37         O41   2.468       .  S
Cd37         O39   2.460       .  S
Cd37        O134   2.470       .  S
Cd37        O136   2.475       .  S
Cd37        O146   2.468       .  S
Cd37        O145   2.468       .  S
C40          C78   1.434       .  S
C40          O44   1.263       .  A
O43        Cd139   2.463       .  S
O44        Cd139   2.464   1_545  S
C45          C46   1.401   1_455  A
C45          C50   1.400       .  A
C45          C67   1.440       .  S
C46         C251   1.402       .  A
C46          H51   1.084       .  S
C47          C48   1.401       .  A
C47         C250   1.401   1_565  A
C47         C168   1.440       .  S
C48         C253   1.403       .  A
C48          H52   1.084       .  S
C49          C50   1.405   1_655  A
C49         C252   1.403       .  A
C49          C92   1.479   1_554  S
C50          H53   1.084       .  S
C54          C55   1.401       .  A
C54          C59   1.402       .  A
C54          C75   1.439       .  S
C55          C56   1.400       .  A
C55          H60   1.084       .  S
C56          C57   1.400       .  A
C56          C74   1.439       .  S
C57          C58   1.402       .  A
C57          H61   1.084       .  S
C58          C59   1.406       .  A
C58          C80   1.479       .  S
C59          H62   1.084       .  S
C63          C64   1.206       .  T
C64          C65   1.412       .  S
C65          C66   1.206       .  T
C66         C149   1.440       .  S
C67          C68   1.206       .  T
C68          C69   1.412       .  S
C69          C70   1.205       .  T
C71          C72   1.205       .  T
C72          C73   1.411       .  S
C73          C74   1.205       .  T
C75          C76   1.205       .  T
C76          C77   1.411       .  S
C77          C78   1.205       .  T
C79          C80   1.343       .  D
C79          H81   1.087       .  S
C80          H82   1.087       .  S
C83          C84   1.206       .  T
C84          C85   1.412       .  S
C85          C86   1.206       .  T
C87          C88   1.208       .  T
C88          C89   1.415       .  S
C89          C90   1.208       .  T
C91         C209   1.478   1_545  S
C91          C92   1.343   1_445  D
C91         H195   1.087       .  S
C92         H298   1.087       .  S
H93         C193   1.087       .  S
H94         C296   1.087       .  S
C95          C96   1.206       .  T
C96          C97   1.413       .  S
C97          C98   1.206       .  T
C99         C205   1.439       .  S
C99         C100   1.205       .  T
C100        C101   1.411       .  S
C101        C102   1.205       .  T
C103        C104   1.403       .  A
C103        C312   1.402       .  A
C103        C405   1.442       .  S
C104        H109   1.083       .  S
C105        C310   1.401       .  A
C105        C197   1.442       .  S
C106        C309   1.400       .  A
C106        C107   1.402       .  A
C106        H110   1.084       .  S
C107        C397   1.478       .  S
C108        C307   1.402       .  A
C108        H111   1.084       .  S
C112        C113   1.401       .  A
C112        C117   1.401       .  A
C112        C192   1.442       .  S
C113        C114   1.403       .  A
C113        H118   1.084       .  S
C114        C115   1.406       .  A
C114        C181   1.480       .  S
C115        C116   1.401       .  A
C115        H119   1.084       .  S
C116        C117   1.402       .  A
C116        C185   1.440       .  S
C117        H120   1.083       .  S
O121        C124   1.264       .  A
O121       Cd330   2.476       .  S
C122        C188   1.436       .  S
C122        O131   1.263       .  A
C122        O127   1.263       .  A
O123        C333   1.263       .  A
O123       Cd126   2.479       .  S
C124        C189   1.437       .  S
C124        O132   1.263       .  A
C125        C200   1.437       .  S
C125        O334   1.264       .  A
C125        O332   1.263       .  A
Cd126       O325   2.474   1_455  S
Cd126       O133   2.476       .  S
Cd126       O336   2.468   1_455  S
Cd126       O131   2.471       .  S
Cd126       O127   2.475       .  S
Cd126       O334   2.474       .  S
Cd126       O332   2.471       .  S
O128        C329   1.263       .  A
O128       Cd330   2.460       .  S
C129        C204   1.436       .  S
C129        O327   1.264       .  A
C129        O337   1.263       .  A
O130        C329   1.264       .  A
O130       Cd330   2.463       .  S
O132       Cd330   2.469       .  S
O133        C333   1.263       .  A
O134        C137   1.264       .  A
C135        C165   1.435       .  S
C135        O144   1.264   1_565  A
C135        O140   1.264       .  A
O136        C142   1.264       .  A
C137        C172   1.436       .  S
C137        O145   1.263       .  A
C138        C173   1.434       .  S
C138        O143   1.263       .  A
C138        O141   1.263       .  A
Cd139       O144   2.462   1_565  S
Cd139       O140   2.467       .  S
Cd139       O143   2.468       .  S
Cd139       O141   2.462       .  S
C142        C180   1.436       .  S
C142        O146   1.263       .  A
C147        C148   1.401   1_455  A
C147        C152   1.401       .  A
C147        C169   1.441       .  S
C148        C353   1.401       .  A
C148        H153   1.084       .  S
C149        C352   1.401       .  A
C149        C150   1.400       .  A
C150        C355   1.402       .  A
C150        H154   1.084       .  S
C151        C354   1.403       .  A
C151        C152   1.406   1_655  A
C151        C194   1.479   1_554  S
C152        H155   1.084       .  S
C156        C157   1.401       .  A
C156        C161   1.402       .  A
C156        C177   1.441       .  S
C157        C158   1.401       .  A
C157        H162   1.084       .  S
C158        C159   1.400       .  A
C158        C176   1.439       .  S
C159        C160   1.402       .  A
C159        H163   1.084       .  S
C160        C161   1.406       .  A
C160        C182   1.479       .  S
C161        H164   1.084       .  S
C165        C166   1.206       .  T
C166        C167   1.412       .  S
C167        C168   1.206       .  T
C169        C170   1.206       .  T
C170        C171   1.413       .  S
C171        C172   1.206       .  T
C173        C174   1.205       .  T
C174        C175   1.410       .  S
C175        C176   1.205       .  T
C177        C178   1.206       .  T
C178        C179   1.413       .  S
C179        C180   1.206       .  T
C181        C182   1.344       .  D
C181        H183   1.087       .  S
C182        H184   1.087       .  S
C185        C186   1.206       .  T
C186        C187   1.412       .  S
C187        C188   1.206       .  T
C189        C190   1.207       .  T
C190        C191   1.414       .  S
C191        C192   1.207       .  T
C193        C311   1.480       .  S
C193        C194   1.344   1_455  D
C194        H400   1.087       .  S
H196        C398   1.087       .  S
C197        C198   1.207       .  T
C198        C199   1.413       .  S
C199        C200   1.207       .  T
C201        C307   1.442       .  S
C201        C202   1.207       .  T
C202        C203   1.413       .  S
C203        C204   1.206       .  T
C205        C206   1.400       .  A
C206        C309   1.400       .  A
C206        H211   1.084       .  S
C207        C308   1.401   1_545  A
C207        C299   1.439       .  S
C208        C209   1.402   1_545  A
C208        H212   1.084       .  S
C209        C312   1.406       .  A
C210        C311   1.403       .  A
C210        H213   1.084       .  S
C214        C215   1.402       .  A
C214        C219   1.402       .  A
C214        C294   1.441       .  S
C215        C216   1.406       .  A
C215        H220   1.084       .  S
C216        C217   1.401       .  A
C216        C283   1.479       .  S
C217        C218   1.400       .  A
C217        H221   1.084       .  S
C218        C219   1.401       .  A
C218        C287   1.440       .  S
C219        H222   1.084       .  S
O223        C226   1.263       .  A
C224        C290   1.435       .  S
C224        O233   1.263       .  A
C224        O229   1.264       .  A
O225       Cd228   2.471       .  S
C226        C291   1.436       .  S
C226        O234   1.264       .  A
C227        C302   1.435       .  S
Cd228       O235   2.463       .  S
Cd228       O233   2.465       .  S
Cd228       O229   2.467       .  S
C231        C306   1.438       .  S
O236        C239   1.264       .  A
O236       Cd343   2.471       .  S
C237        C267   1.435       .  S
C237        O246   1.264       .  A
C237        O242   1.264       .  A
O238        C244   1.263       .  A
O238       Cd343   2.473       .  S
C239        C274   1.436       .  S
C239        O247   1.263       .  A
C240        C275   1.436       .  S
C240        O245   1.264       .  A
C240        O243   1.263       .  A
Cd241       O338   2.471       .  S
Cd241       O340   2.473       .  S
Cd241       O350   2.465       .  S
Cd241       O349   2.466       .  S
Cd241       O246   2.466       .  S
Cd241       O242   2.466       .  S
Cd241       O245   2.473       .  S
Cd241       O243   2.469       .  S
C244        C282   1.438       .  S
C244        O248   1.264       .  A
O247       Cd343   2.471       .  S
O248       Cd343   2.479       .  S
C249        C250   1.401       .  A
C249        C254   1.401   1_545  A
C249        C271   1.440       .  S
C250        H255   1.084       .  S
C251        C252   1.402       .  A
C251        C372   1.442       .  S
C252        H256   1.084       .  S
C253        C254   1.407       .  A
C253        C296   1.481   1_554  S
C254        H257   1.084       .  S
C258        C259   1.401       .  A
C258        C263   1.402       .  A
C258        C279   1.442       .  S
C259        C260   1.401       .  A
C259        H264   1.084       .  S
C260        C261   1.401       .  A
C260        C278   1.441       .  S
C261        C262   1.403       .  A
C261        H265   1.084       .  S
C262        C263   1.407       .  A
C262        C284   1.480       .  S
C263        H266   1.084       .  S
C267        C268   1.206       .  T
C268        C269   1.412       .  S
C269        C270   1.206       .  T
C270        C353   1.440       .  S
C271        C272   1.206       .  T
C272        C273   1.412       .  S
C273        C274   1.206       .  T
C275        C276   1.206       .  T
C276        C277   1.413       .  S
C277        C278   1.206       .  T
C279        C280   1.207       .  T
C280        C281   1.414       .  S
C281        C282   1.207       .  T
C283        C284   1.343       .  D
C283        H285   1.087       .  S
C284        H286   1.087       .  S
C287        C288   1.205       .  T
C288        C289   1.411       .  S
C289        C290   1.205       .  T
C291        C292   1.206       .  T
C292        C293   1.413       .  S
C293        C294   1.206       .  T
C295        C296   1.343   1_545  D
C295        H399   1.087       .  S
H297        C397   1.087       .  S
C299        C300   1.205       .  T
C300        C301   1.411       .  S
C301        C302   1.205       .  T
C303        C304   1.207       .  T
C304        C305   1.414       .  S
C305        C306   1.207       .  T
C307        C308   1.402       .  A
C308        H313   1.084       .  S
C309        C401   1.438       .  S
C310        C311   1.406       .  A
C310        H314   1.084       .  S
C312        H315   1.084       .  S
C316        C317   1.401       .  A
C316        C321   1.402       .  A
C316        C396   1.441       .  S
C317        C318   1.403       .  A
C317        H322   1.084       .  S
C318        C319   1.406       .  A
C318        C385   1.480       .  S
C319        C320   1.401       .  A
C319        H323   1.084       .  S
C320        C321   1.402       .  A
C320        C389   1.442       .  S
C321        H324   1.083       .  S
O325        C328   1.264       .  A
C326        C392   1.437       .  S
C326        O335   1.263       .  A
C326        O331   1.264       .  A
O327       Cd330   2.473       .  S
C328        C393   1.437       .  S
C328        O336   1.263       .  A
C329        C404   1.433       .  S
Cd330       O337   2.465       .  S
Cd330       O335   2.471       .  S
Cd330       O331   2.477       .  S
C333        C408   1.438       .  S
O338        C341   1.263       .  A
C339        C369   1.437       .  S
C339        O348   1.263       .  A
C339        O344   1.263       .  A
O340        C346   1.264       .  A
C341        C376   1.435       .  S
C341        O349   1.263       .  A
C342        C377   1.437       .  S
C342        O347   1.264       .  A
C342        O345   1.263       .  A
Cd343       O348   2.472       .  S
Cd343       O344   2.473       .  S
Cd343       O347   2.475   1_545  S
Cd343       O345   2.469   1_545  S
C346        C384   1.436       .  S
C346        O350   1.263       .  A
C351        C352   1.401       .  A
C351        C356   1.401       .  A
C351        C373   1.440       .  S
C352        H357   1.084       .  S
C353        C354   1.401       .  A
C354        H358   1.084       .  S
C355        C356   1.406       .  A
C355        C398   1.478   1_554  S
C356        H359   1.084       .  S
C360        C361   1.401       .  A
C360        C365   1.401       .  A
C360        C381   1.441       .  S
C361        C362   1.401       .  A
C361        H366   1.084       .  S
C362        C363   1.401       .  A
C362        C380   1.441       .  S
C363        C364   1.404       .  A
C363        H367   1.084       .  S
C364        C365   1.407       .  A
C364        C386   1.481       .  S
C365        H368   1.084       .  S
C369        C370   1.207   1_545  T
C370        C371   1.414       .  S
C371        C372   1.207       .  T
C373        C374   1.206       .  T
C374        C375   1.412       .  S
C375        C376   1.206       .  T
C377        C378   1.206       .  T
C378        C379   1.413       .  S
C379        C380   1.207       .  T
C381        C382   1.206       .  T
C382        C383   1.412       .  S
C383        C384   1.206       .  T
C385        C386   1.344       .  D
C385        H387   1.087       .  S
C386        H388   1.087       .  S
C389        C390   1.207       .  T
C390        C391   1.414       .  S
C391        C392   1.207       .  T
C393        C394   1.206       .  T
C394        C395   1.413       .  S
C395        C396   1.207       .  T
C397        C398   1.343       .  D
C401        C402   1.204       .  T
C402        C403   1.409       .  S
C403        C404   1.204       .  T
C405        C406   1.207       .  T
C406        C407   1.415       .  S
C407        C408   1.207       .  T
