geometry optimzed in LAMMPS
_audit_creation_date              2020-11-30 
_audit_creation_method            'lammps2cif' 
_symmetry_space_group_name_H-M    'P1' 
_symmetry_Int_Tables_number       1 
_symmetry_cell_setting            triclinic 
loop_ 
_symmetry_equiv_pos_as_xyz 
  x,y,z 
_cell_length_a                    47.735554420097934 
_cell_length_b                    47.17049629787851 
_cell_length_c                    47.882502013270106 
_cell_angle_alpha                 89.3144015390443 
_cell_angle_beta                  89.61172594280993 
_cell_angle_gamma                 90.56741242743755 
loop_ 
_atom_site_label 
_atom_site_type_symbol 
_atom_site_fract_x 
_atom_site_fract_y 
_atom_site_fract_z 
_atom_site_charge 
O1          O  0.99500040  0.57395483  0.81776841    -0.81140
O2          O  0.01036308  0.69299543  0.77775090    -0.65830
O3          O  0.02386760  0.62499350  0.81895723    -1.12440
C4          C  0.96255860  0.66078715  0.88399252     1.05740
O5          O  0.01144314  0.72161327  0.81440824    -0.79040
O6          O  0.03177951  0.68788883  0.85899127    -0.66620
Ni7        Ni  0.02715311  0.59040318  0.80002699     1.34870
C8          C  0.03689127  0.66516770  0.87274784     0.84480
O9          O  0.04497851  0.64958083  0.76934574    -0.79580
O10         O  0.05920101  0.60579346  0.78157271    -0.89860
C11         C  0.01163708  0.71773801  0.78794464     0.84050
O12         O  0.00368215  0.59877438  0.76906754    -0.68060
O13         O  0.97717038  0.68311744  0.87863001    -0.87350
C14         C  0.98451100  0.61710186  0.76772503     0.84880
C15         C  0.06187718  0.62879445  0.76757466     1.06450
H16         H  0.97158328  0.66660016  0.81791140     0.38250
O17         O  0.99014441  0.66573542  0.82580297    -1.10000
O18         O  0.02112731  0.64306439  0.87164428    -0.66660
Ni19       Ni  0.99402959  0.62963159  0.84480164     1.26350
O20         O  0.98718786  0.64172082  0.77749109    -0.66880
O21         O  0.96469165  0.63771299  0.87047225    -0.79180
C22         C  0.99470068  0.56926228  0.84371571     0.84270
O23         O  0.99729611  0.59045939  0.86027617    -0.66350
Ni24       Ni  0.99554431  0.69960591  0.84605040     1.27450
Ni25       Ni  0.01743771  0.65848199  0.79759333     1.26060
H26         H  0.04147807  0.62765542  0.82842179     0.38810
O27         O  0.99641731  0.30140480  0.77757561    -0.81140
O28         O  0.98484066  0.42878773  0.82978356    -0.65830
O29         O  0.97850639  0.35766650  0.78946934    -1.12440
C30         C  0.04456291  0.39643218  0.73152000     1.05740
O31         O  0.01314844  0.45445736  0.80173537    -0.79040
O32         O  0.97981040  0.42749645  0.76413177    -0.66620
Ni33       Ni  0.98051932  0.32266753  0.80926563     1.34870
C34         C  0.96888957  0.40747796  0.75015465     0.84480
O35         O  0.94984329  0.38325210  0.83098876    -0.79580
O36         O  0.96193343  0.33854504  0.84160874    -0.89860
C37         C  0.99796448  0.45198967  0.82351307     0.84050
O38         O  0.01665353  0.33313264  0.82366521    -0.68060
O39         O  0.02563099  0.41462873  0.73401979    -0.87350
C40         C  0.02127466  0.35485025  0.83879373     0.84880
C41         C  0.94754548  0.36086865  0.84595937     1.06450
H42         H  0.03322903  0.39494623  0.79983355     0.38250
O43         O  0.01645088  0.39747011  0.78896358    -1.10000
O44         O  0.98272557  0.38558513  0.74276434    -0.66660
Ni45       Ni  0.00948790  0.36499450  0.76584400     1.26350
O46         O  0.00488854  0.37593763  0.83916808    -0.66880
O47         O  0.04197898  0.37269513  0.74346787    -0.79180
C48         C  0.99899156  0.30742004  0.75143946     0.84270
O49         O  0.00170305  0.33295849  0.74322766    -0.66350
Ni50       Ni  0.01869587  0.43243459  0.76886364     1.27450
Ni51       Ni  0.98244967  0.39214375  0.81019517     1.26060
H52         H  0.96100367  0.35770783  0.77944761     0.38810
O53         O  0.06123285  0.49506923  0.63670042    -0.81140
O54         O  0.17459264  0.51638715  0.68832082    -0.65830
O55         O  0.11068575  0.52701828  0.64141041    -1.12440
C56         C  0.15213592  0.46342904  0.58251106     1.05740
O57         O  0.20676031  0.50845150  0.65546137    -0.79040
O58         O  0.18002474  0.53219390  0.60810861    -0.66620
Ni59       Ni  0.07414851  0.52686857  0.65733253     1.34870
C60         C  0.15936515  0.53875153  0.59258894     0.84480
O61         O  0.13060826  0.55261860  0.68960080    -0.79580
O62         O  0.08512452  0.55847147  0.67841937    -0.89860
C63         C  0.19981980  0.51138603  0.68114782     0.84050
O64         O  0.08002568  0.50106819  0.68729708    -0.68060
O65         O  0.17382640  0.47839114  0.58778413    -0.87350
C66         C  0.10075474  0.48531406  0.69203464     0.84880
C67         C  0.10765292  0.56656957  0.69006086     1.06450
H68         H  0.15075940  0.47426148  0.64905344     0.38250
O69         O  0.15174814  0.49265274  0.63997105    -1.10000
O70         O  0.13650869  0.52418403  0.59180664    -0.66660
Ni71       Ni  0.11880516  0.49693692  0.61735034     1.26350
O72         O  0.12574345  0.49265947  0.68720973    -0.66880
O73         O  0.12877626  0.46652834  0.59474692    -0.79180
C74         C  0.06024404  0.49610492  0.61044206     0.84270
O75         O  0.08312843  0.50065091  0.59683990    -0.66350
Ni76       Ni  0.18748153  0.49490003  0.62207855     1.27450
Ni77       Ni  0.14229149  0.52234455  0.66527419     1.26060
H78         H  0.11292232  0.54486497  0.63151326     0.38810
O79         O  0.80259478  0.52427462  0.67073358    -0.81140
O80         O  0.92024349  0.49997734  0.60620008    -0.65830
O81         O  0.85278573  0.49774771  0.65280377    -1.12440
C82         C  0.90727343  0.56053074  0.70741141     1.05740
O83         O  0.94502776  0.49287312  0.64376272    -0.79040
O84         O  0.92751406  0.49490991  0.69533440    -0.66620
Ni85       Ni  0.81776004  0.50777888  0.63684325     1.34870
C86         C  0.90530027  0.48174243  0.70243081     0.84480
O87         O  0.86973062  0.47044825  0.60581329    -0.79580
O88         O  0.82737422  0.49036886  0.60195369    -0.89860
C89         C  0.94397633  0.49519718  0.61756571     0.84050
O90         O  0.83190103  0.54358103  0.62405234    -0.68060
O91         O  0.92810935  0.55311354  0.69266536    -0.87350
C92         C  0.85247479  0.54674287  0.60724673     0.84880
C93         C  0.84505265  0.47131240  0.59589490     1.06450
H94         H  0.89736409  0.54534505  0.64508611     0.38250
O95         O  0.89820437  0.52686629  0.65392538    -1.10000
O96         O  0.88095828  0.49097207  0.69844530    -0.66660
Ni97       Ni  0.86708358  0.52356670  0.67950965     1.26350
O98         O  0.87162182  0.52828573  0.60461091    -0.66880
O99         O  0.88283672  0.54942927  0.70615128    -0.79180
C100        C  0.80949431  0.52179265  0.69633623     0.84270
O101        O  0.83496506  0.51920517  0.70344770    -0.66350
Ni102      Ni  0.93521418  0.52318969  0.66782486     1.27450
Ni103      Ni  0.88540887  0.49876092  0.62886078     1.26060
H104        H  0.85067777  0.47889074  0.66070357     0.38810
O105        O  0.56884220  0.01298179  0.81721223    -0.81140
O106        O  0.68532186  0.01086489  0.77198005    -0.65830
O107        O  0.62194276  0.98976386  0.81565512    -1.12440
C108        C  0.65651605  0.05460891  0.87760830     1.05740
O109        O  0.71526849  0.00782328  0.80712983    -0.79040
O110        O  0.68591346  0.98696592  0.85446141    -0.66620
Ni111      Ni  0.58720488  0.98338334  0.79806193     1.34870
C112        C  0.66407870  0.98044906  0.86878996     0.84480
O113        O  0.64585567  0.97124635  0.76532751    -0.79580
O114        O  0.60400251  0.95326317  0.77851462    -0.89860
C115        C  0.71018631  0.00935133  0.78089035     0.84050
O116        O  0.59181753  0.00935699  0.76739236    -0.68060
O117        O  0.67960870  0.04247930  0.87153837    -0.87350
C118        C  0.60851789  0.03039287  0.76563692     0.84880
C119        C  0.62696311  0.95193031  0.76497674     1.06450
H120        H  0.65978787  0.04620678  0.81243510     0.38250
O121        O  0.66026272  0.02729622  0.82039545    -1.10000
O122        O  0.64165963  0.99480636  0.86756469    -0.66660
Ni123      Ni  0.62598325  0.02043172  0.84058620     1.26350
O124        O  0.63364747  0.02913790  0.77359538    -0.66880
O125        O  0.63343687  0.05054092  0.86494876    -0.79180
C126        C  0.56686773  0.01398789  0.84344361     0.84270
O127        O  0.58908749  0.01397418  0.85832192    -0.66350
Ni128      Ni  0.69501259  0.02388714  0.83913081     1.27450
Ni129      Ni  0.65334136  0.99974126  0.79286513     1.26060
H130        H  0.62634962  0.97224733  0.82522618     0.38810
O131        O  0.45453989  0.03205859  0.80386998    -0.81140
O132        O  0.34075781  0.99944989  0.73896829    -0.65830
O133        O  0.39923727  0.02574271  0.78730730    -1.12440
C134        C  0.36877952  0.95442270  0.84580858     1.05740
O135        O  0.30928872  0.99556867  0.77288641    -0.79040
O136        O  0.33502255  0.01947326  0.81977714    -0.66620
Ni137      Ni  0.43390452  0.03475979  0.76975684     1.34870
C138        C  0.35497346  0.02727611  0.83570599     0.84480
O139        O  0.37250131  0.04637011  0.73984532    -0.79580
O140        O  0.41719295  0.03991021  0.73399083    -0.89860
C141        C  0.31547187  0.99626902  0.74686346     0.84050
O142        O  0.43703154  0.99549677  0.76349157    -0.68060
O143        O  0.34567369  0.96574755  0.83876264    -0.87350
C144        C  0.42175068  0.98250091  0.74607315     0.84880
C145        C  0.39576876  0.05491708  0.73066686     1.06450
H146        H  0.36893895  0.96449931  0.77844435     0.38250
O147        O  0.36600825  0.98237274  0.78767506    -1.10000
O148        O  0.37810677  0.01410743  0.83725068    -0.66660
Ni149      Ni  0.39795238  0.99184511  0.81021473     1.26350
O150        O  0.39642507  0.98994922  0.74056461    -0.66880
O151        O  0.39203602  0.95922963  0.83319422    -0.79180
C152        C  0.45358379  0.01607024  0.82540544     0.84270
O153        O  0.43281561  0.99936043  0.83070995    -0.66350
Ni154      Ni  0.33010223  0.98184834  0.80542842     1.27450
Ni155      Ni  0.37001012  0.01301399  0.76260179     1.26060
H156        H  0.39299297  0.04218668  0.79685344     0.38810
O157        O  0.51116965  0.21432128  0.65963171    -0.81140
O158        O  0.50670676  0.08387579  0.61472331    -0.65830
O159        O  0.49585312  0.15701227  0.64962318    -1.12440
C160        C  0.54683271  0.11837433  0.72062459     1.05740
O161        O  0.51658526  0.05733994  0.65227285    -0.79040
O162        O  0.48321683  0.09278374  0.68126291    -0.66620
Ni163      Ni  0.50115291  0.19077653  0.62786665     1.34870
C164        C  0.47361027  0.11519356  0.69211835     0.84480
O165        O  0.47501430  0.12890987  0.60441011    -0.79580
O166        O  0.48907394  0.17298379  0.59363318    -0.89860
C167        C  0.51056550  0.05974034  0.62660004     0.84050
O168        O  0.53899268  0.18089091  0.62101719    -0.68060
O169        O  0.52560945  0.10295702  0.71675218    -0.87350
C170        C  0.54674035  0.15868729  0.60836112     0.84880
C171        C  0.47470629  0.15067888  0.58871067     1.06450
H172        H  0.54808930  0.11447845  0.65307572     0.38250
O173        O  0.52914700  0.11499246  0.66028830    -1.10000
O174        O  0.48952607  0.13562809  0.69969836    -0.66660
Ni175      Ni  0.52191644  0.15036502  0.67893488     1.26350
O176        O  0.53203742  0.13581501  0.60793029    -0.66880
O177        O  0.54931191  0.14156669  0.70720894    -0.79180
C178        C  0.51101737  0.21019442  0.68601735     0.84270
O179        O  0.51399161  0.18562000  0.69685525    -0.66350
Ni180      Ni  0.52123531  0.08227160  0.68318320     1.27450
Ni181      Ni  0.50206294  0.12117453  0.63175209     1.26060
H182        H  0.47677016  0.15757599  0.65639381     0.38810
O183        O  0.50928336  0.94156613  0.64436285    -0.81140
O184        O  0.52045102  0.83076706  0.69909322    -0.65830
O185        O  0.53497846  0.88988722  0.64620830    -1.12440
C186        C  0.46920995  0.84794934  0.59225949     1.05740
O187        O  0.52130975  0.79761042  0.66633239    -0.79040
O188        O  0.53853578  0.82421639  0.61637156    -0.66620
Ni189      Ni  0.54332045  0.92641329  0.65828704     1.34870
C190        C  0.54251521  0.84456605  0.59896541     0.84480
O191        O  0.56000527  0.87325202  0.69606300    -0.79580
O192        O  0.57694842  0.91124045  0.67219035    -0.89860
C193        C  0.52062262  0.80478561  0.69208525     0.84050
O194        O  0.52674142  0.92297916  0.69441444    -0.68060
O195        O  0.48308307  0.82618394  0.60016423    -0.87350
C196        C  0.50388434  0.90997669  0.69906522     0.84880
C197        C  0.57958156  0.89141441  0.69030931     1.06450
H198        H  0.48095659  0.85077812  0.65903063     0.38250
O199        O  0.49879504  0.85039025  0.64937311    -1.10000
O200        O  0.52606584  0.86572703  0.59755987    -0.66660
Ni201      Ni  0.50231841  0.88307125  0.62517652     1.26350
O202        O  0.50115833  0.88407926  0.69269602    -0.66880
O203        O  0.47087900  0.87208835  0.60397373    -0.79180
C204        C  0.50543209  0.94267927  0.61833189     0.84270
O205        O  0.50523924  0.91949728  0.60444523    -0.66350
Ni206      Ni  0.50308559  0.81422045  0.63334295     1.27450
Ni207      Ni  0.52849141  0.86120146  0.67338584     1.26060
H208        H  0.55125571  0.88434944  0.63562522     0.38810
O209        O  0.30880182  0.80371681  0.98082091    -0.81140
O210        O  0.42768487  0.86849245  0.99053004    -0.65830
O211        O  0.36383627  0.82377418  0.96676897    -1.12440
C212        C  0.39713268  0.75993004  0.03506966     1.05740
O213        O  0.45467888  0.83092641  0.98950940    -0.79040
O214        O  0.43742627  0.77832471  0.98221755    -0.66620
Ni215      Ni  0.32699872  0.83885820  0.96766003     1.34870
C216        C  0.42126765  0.77336456  0.96191305     0.84480
O217        O  0.38806182  0.87427912  0.95109803    -0.79580
O218        O  0.34086465  0.87448391  0.95226593    -0.89860
C219        C  0.45204419  0.85753926  0.99041014     0.84050
O220        O  0.32902268  0.85276808  0.00504177    -0.68060
O221        O  0.41863047  0.77602227  0.03655509    -0.87350
C222        C  0.34872315  0.86704945  0.01600919     0.84880
C223        C  0.36458988  0.88380515  0.94322799     1.06450
H224        H  0.39205762  0.82432227  0.02380932     0.38250
O225        O  0.39890333  0.81780908  0.00599859    -1.10000
O226        O  0.39503905  0.77790218  0.96259727    -0.66660
Ni227      Ni  0.37072831  0.79295545  0.99126188     1.26350
O228        O  0.37344725  0.86840852  0.00576331    -0.66880
O229        O  0.37820611  0.76229839  0.01665683    -0.79180
C230        C  0.31541371  0.77774584  0.97727102     0.84270
O231        O  0.34098964  0.77047084  0.97618480    -0.66350
Ni232      Ni  0.43522787  0.80374434  0.01272907     1.27450
Ni233      Ni  0.39460829  0.84692044  0.97894523     1.26060
H234        H  0.36746910  0.81830718  0.94771173     0.38810
O235        O  0.71428313  0.83096744  0.97987139    -0.81140
O236        O  0.58966617  0.88574077  0.99063330    -0.65830
O237        O  0.65899830  0.84378935  0.99873624    -1.12440
C238        C  0.62336317  0.79879876  0.91830712     1.05740
O239        O  0.56816210  0.84466980  0.98716372    -0.79040
O240        O  0.58870641  0.79461124  0.97762037    -0.66620
Ni241      Ni  0.69442157  0.86245125  0.99785867     1.34870
C242        C  0.60621797  0.79070481  0.99702168     0.84480
O243        O  0.63361317  0.88688530  0.02695845    -0.79580
O244        O  0.67962659  0.89436805  0.01847697    -0.89860
C245        C  0.56689383  0.87114462  0.98986353     0.84050
O246        O  0.68651162  0.88018125  0.96250625    -0.68060
O247        O  0.60025666  0.81121976  0.92296361    -0.87350
C248        C  0.66537288  0.89551405  0.95688769     0.84880
C249        C  0.65673071  0.89962076  0.03147198     1.06450
H250        H  0.62468164  0.85619488  0.94565352     0.38250
O251        O  0.62050189  0.84458245  0.96191979    -1.10000
O252        O  0.63178849  0.79706443  0.99423937    -0.66660
Ni253      Ni  0.65142277  0.82020581  0.96770081     1.26350
O254        O  0.64317973  0.89521976  0.97195940    -0.66880
O255        O  0.64308884  0.79709557  0.93604271    -0.79180
C256        C  0.70786108  0.80482131  0.97603098     0.84270
O257        O  0.68257221  0.79678335  0.97457188    -0.66350
Ni258      Ni  0.58490100  0.82807363  0.95529369     1.27450
Ni259      Ni  0.62564514  0.86600036  0.99469474     1.26060
H260        H  0.65786251  0.83331242  0.01618395     0.38810
O261        O  0.49918326  0.66742735  0.03728949    -0.81140
O262        O  0.51265410  0.71919909  0.15049939    -0.65830
O263        O  0.53104380  0.67786229  0.08488670    -1.12440
C264        C  0.47679660  0.60636524  0.12637436     1.05740
O265        O  0.52057647  0.68332125  0.17980727    -0.79040
O266        O  0.54096987  0.63618207  0.15397016    -0.66620
Ni267      Ni  0.52629733  0.69449217  0.04905247     1.34870
C268        C  0.54994284  0.62453620  0.13192825     0.84480
O269        O  0.54418513  0.73223629  0.10463766    -0.79580
O270        O  0.55238483  0.72244767  0.05915303    -0.89860
C271        C  0.51552468  0.70951010  0.17523647     0.84050
O272        O  0.49553668  0.71823442  0.05675322    -0.68060
O273        O  0.48705279  0.61514968  0.14937378    -0.87350
C274        C  0.47949375  0.71814768  0.07785283     0.84880
C275        C  0.55610462  0.73707430  0.08096648     1.06450
H276        H  0.47997912  0.67209691  0.12669248     0.38250
O277        O  0.49962095  0.66734233  0.12690494    -1.10000
O278        O  0.53763175  0.62603026  0.10838029    -0.66660
Ni279      Ni  0.50688792  0.64703238  0.09315001     1.26350
O280        O  0.48803426  0.71411192  0.10239536    -0.66880
O281        O  0.48196499  0.61770318  0.10276549    -0.79180
C282        C  0.50526369  0.64165866  0.03538205     0.84270
O283        O  0.51363072  0.62862276  0.05722302    -0.66350
Ni284      Ni  0.50458552  0.64976349  0.16233667     1.27450
Ni285      Ni  0.52206940  0.69965776  0.11704821     1.26060
H286        H  0.55030969  0.67193402  0.08630809     0.38810
O287        O  0.51842930  0.69055281  0.77455438    -0.81140
O288        O  0.50753304  0.63303160  0.89681522    -0.65830
O289        O  0.49649163  0.67504640  0.82810768    -1.12440
C290        C  0.57366407  0.72691844  0.86184076     1.05740
O291        O  0.51089412  0.67328161  0.91967639    -0.79040
O292        O  0.51873395  0.72558525  0.89861071    -0.66620
Ni293      Ni  0.50052198  0.65727281  0.79305512     1.34870
C294        C  0.49754665  0.72955141  0.88329585     0.84480
O295        O  0.47148870  0.62935804  0.85315639    -0.79580
O296        O  0.48058945  0.62369371  0.80728155    -0.89860
C297        C  0.50762294  0.64658250  0.91978324     0.84050
O298        O  0.53639309  0.64114103  0.80163881    -0.68060
O299        O  0.57229650  0.71140937  0.88380586    -0.87350
C300        C  0.54205217  0.62558966  0.82276865     0.84880
C301        C  0.46725024  0.61719656  0.82991394     1.06450
H302        H  0.55039621  0.66742589  0.86026399     0.38250
O303        O  0.53356302  0.67713209  0.86576004    -1.10000
O304        O  0.49646174  0.72115212  0.85823386    -0.66660
Ni305      Ni  0.52441597  0.70229370  0.83602444     1.26350
O306        O  0.52688544  0.62529744  0.84474591    -0.66880
O307        O  0.55376313  0.72899917  0.84429704    -0.79180
C308        C  0.51675928  0.71711072  0.77998577     0.84270
O309        O  0.51421988  0.72554843  0.80497500    -0.66350
Ni310      Ni  0.54140389  0.69241442  0.90100988     1.27450
Ni311      Ni  0.50232296  0.65279602  0.86117397     1.26060
H312        H  0.47807090  0.68334742  0.82888429     0.38810
O313        O  0.84096100  0.56848943  0.96236645    -0.81140
O314        O  0.78517309  0.69113072  0.96586237    -0.65830
O315        O  0.83208013  0.62608465  0.95978379    -1.12440
C316        C  0.86698832  0.65249928  0.04495230     1.05740
O317        O  0.81613164  0.71944623  0.98590311    -0.79040
O318        O  0.86474192  0.68856566  0.97537526    -0.66620
Ni319      Ni  0.81403250  0.59292618  0.94605803     1.34870
C320        C  0.88032572  0.66695859  0.97231507     0.84480
O321        O  0.79881708  0.65760571  0.92376499    -0.79580
O322        O  0.78547602  0.61297463  0.92670746    -0.89860
C323        C  0.79234196  0.71539959  0.97462663     0.84050
O324        O  0.79217088  0.59198839  0.97899808    -0.68060
O325        O  0.86648911  0.67590701  0.03150289    -0.87350
C326        C  0.77594502  0.61165773  0.98662389     0.84880
C327        C  0.78829134  0.63586477  0.91294365     1.06450
H328        H  0.80536988  0.65873412  0.01283406     0.38250
O329        O  0.82079015  0.66072523  0.99975736    -1.10000
O330        O  0.87684564  0.64446276  0.98698323    -0.66660
Ni331      Ni  0.84230361  0.62646700  0.99884295     1.26350
O332        O  0.77644813  0.63658662  0.97571034    -0.66880
O333        O  0.85323281  0.63067411  0.03703813    -0.79180
C334        C  0.85780262  0.56836776  0.98270998     0.84270
O335        O  0.86167556  0.58998295  0.99831763    -0.66350
Ni336      Ni  0.84096445  0.69490709  0.00713727     1.27450
Ni337      Ni  0.80865509  0.65883816  0.96221897     1.26060
H338        H  0.84778327  0.63020463  0.94754803     0.38810
O339        O  0.82678322  0.45506777  0.99262037    -0.81140
O340        O  0.76754278  0.34103812  0.98009542    -0.65830
O341        O  0.81542629  0.39852343  0.00875706    -1.12440
C342        C  0.87618232  0.36310725  0.94236404     1.05740
O343        O  0.79951182  0.30809970  0.98728816    -0.79040
O344        O  0.85107684  0.32880793  0.00725328    -0.66620
Ni345      Ni  0.80092092  0.43500701  0.01610679     1.34870
C346        C  0.86766319  0.34864112  0.01456296     0.84480
O347        O  0.75987839  0.37822911  0.01955507    -0.79580
O348        O  0.77404125  0.41811933  0.04038759    -0.89860
C349        C  0.77388354  0.31525282  0.98349064     0.84050
O350        O  0.77541502  0.43719365  0.98565799    -0.68060
O351        O  0.86784787  0.33914625  0.95259757    -0.87350
C352        C  0.77121950  0.42093615  0.96515867     0.84880
C353        C  0.75736507  0.39717310  0.03787292     1.06450
H354        H  0.81341202  0.36579164  0.95069956     0.38250
O355        O  0.81950971  0.36279193  0.96969982    -1.10000
O356        O  0.86658186  0.37359386  0.00429059    -0.66660
Ni357      Ni  0.84243870  0.39436478  0.97977305     1.26350
O358        O  0.77559832  0.39452479  0.96599155    -0.66880
O359        O  0.86727216  0.38719202  0.95013177    -0.79180
C360        C  0.85305651  0.45260210  0.99195322     0.84270
O361        O  0.86419064  0.42820463  0.98966537    -0.66350
Ni362      Ni  0.83386583  0.32551113  0.97116731     1.27450
Ni363      Ni  0.79015068  0.37027070  0.99469400     1.26060
H364        H  0.82300116  0.39138731  0.02609541     0.38810
O365        O  0.72406994  0.50627656  0.16103264    -0.81140
O366        O  0.65578580  0.51517714  0.04744053    -0.65830
O367        O  0.68478490  0.52321819  0.12153166    -1.12440
C368        C  0.61772891  0.45729391  0.14806590     1.05740
O369        O  0.61856731  0.48686608  0.05289010    -0.79040
O370        O  0.61438627  0.52104525  0.10066354    -0.66620
Ni371      Ni  0.72463419  0.52309270  0.12429213     1.34870
C372        C  0.62097934  0.53171884  0.12420400     0.84480
O373        O  0.68794007  0.55268851  0.07211811    -0.79580
O374        O  0.73020500  0.54178559  0.08829383    -0.89860
C375        C  0.63555822  0.50100577  0.03734323     0.84050
O376        O  0.72504745  0.48589862  0.10961664    -0.68060
O377        O  0.60506230  0.47415287  0.13178610    -0.87350
C378        C  0.71399287  0.47856713  0.08683414     0.84880
C379        C  0.71423291  0.55630354  0.07242690     1.06450
H380        H  0.66166301  0.46731113  0.09221115     0.38250
O381        O  0.65329315  0.48441889  0.09921214    -1.10000
O382        O  0.63468785  0.51809232  0.14312370    -0.66660
Ni383      Ni  0.66507316  0.49119869  0.13693513     1.26350
O384        O  0.70093244  0.49632375  0.07184300    -0.66880
O385        O  0.64405676  0.45909624  0.15114568    -0.79180
C386        C  0.70603242  0.49896493  0.17950113     0.84270
O387        O  0.67974555  0.49722729  0.17428689    -0.66350
Ni388      Ni  0.61414619  0.48173086  0.09319191     1.27450
Ni389      Ni  0.67026445  0.51884335  0.08464572     1.26060
H390        H  0.67829307  0.54079300  0.12932790     0.38810
O391        O  0.67442832  0.50264998  0.91635034    -0.81140
O392        O  0.72703031  0.51235674  0.80575068    -0.65830
O393        O  0.67718858  0.52873406  0.86501417    -1.12440
C394        C  0.61924468  0.46434077  0.82297660     1.05740
O395        O  0.69388928  0.51855434  0.77409026    -0.79040
O396        O  0.64445495  0.53565535  0.80075148    -0.66620
Ni397      Ni  0.69181178  0.53573279  0.90057635     1.34870
C398        C  0.62776354  0.53968692  0.82119604     0.84480
O399        O  0.72886575  0.55059106  0.84648225    -0.79580
O400        O  0.70919834  0.56873701  0.88503304    -0.89860
C401        C  0.71982531  0.51623964  0.78056599     0.84050
O402        O  0.72589988  0.51519720  0.89725418    -0.68060
O403        O  0.62661388  0.47991712  0.80203996    -0.87350
C404        C  0.72968256  0.49355288  0.88239904     0.84880
C405        C  0.72536828  0.57069558  0.86375687     1.06450
H406        H  0.68466760  0.47464777  0.82567763     0.38250
O407        O  0.67637043  0.49325856  0.82572979    -1.10000
O408        O  0.62660301  0.52304781  0.84244498    -0.66660
Ni409      Ni  0.65337277  0.49697836  0.85844190     1.26350
O410        O  0.72076284  0.49200805  0.85763107    -0.66880
O411        O  0.63002824  0.46606369  0.84735801    -0.79180
C412        C  0.64800992  0.50058233  0.91756316     0.84270
O413        O  0.63385342  0.50007573  0.89477104    -0.66350
Ni414      Ni  0.66028289  0.49997968  0.79032944     1.27450
Ni415      Ni  0.70288543  0.52115744  0.83594359     1.26060
H416        H  0.66761121  0.54591590  0.85985090     0.38810
O417        O  0.99697994  0.77898503  0.67773938    -0.81140
O418        O  0.01504705  0.83145249  0.55914004    -0.65830
O419        O  0.02348089  0.80866120  0.63518669    -1.12440
C420        C  0.97169838  0.88643042  0.65377989     1.05740
O421        O  0.99315736  0.87249504  0.55932907    -0.79040
O422        O  0.03146427  0.87622054  0.60401505    -0.66620
Ni423      Ni  0.01483239  0.76991027  0.64320053     1.34870
C424        C  0.04233574  0.87566451  0.62834674     0.84480
O425        O  0.04710595  0.79701512  0.58665166    -0.79580
O426        O  0.03277362  0.75749985  0.60896325    -0.89860
C427        C  0.00413443  0.85203424  0.54610180     0.84050
O428        O  0.97842744  0.77210432  0.62782147    -0.68060
O429        O  0.99038272  0.89473906  0.63680212    -0.87350
C430        C  0.97213767  0.78114492  0.60385938     0.84880
C431        C  0.04800299  0.77055670  0.59073124     1.06450
H432        H  0.97032536  0.83640082  0.60773984     0.38250
O433        O  0.98892261  0.84338221  0.61176740    -1.10000
O434        O  0.03057439  0.86271009  0.64943697    -0.66660
Ni435      Ni  0.99891772  0.83501368  0.65055356     1.26350
O436        O  0.99043851  0.79257008  0.58800985    -0.66880
O437        O  0.97235448  0.86167948  0.66429851    -0.79180
C438        C  0.00604466  0.79639317  0.69550292     0.84270
O439        O  0.00910953  0.82273202  0.68864331    -0.66350
Ni440      Ni  0.99237720  0.88164997  0.59926704     1.27450
Ni441      Ni  0.01831574  0.82030912  0.59758092     1.26060
H442        H  0.04254348  0.81249913  0.64079206     0.38810
O443        O  0.00578301  0.80566768  0.42202912    -0.81140
O444        O  0.99800385  0.76562228  0.30423395    -0.65830
O445        O  0.02270124  0.80862433  0.36629090    -1.12440
C446        C  0.95487612  0.87016917  0.33990187     1.05740
O447        O  0.00095994  0.80336937  0.27606070    -0.79040
O448        O  0.02189600  0.84859129  0.30693979    -0.66620
Ni449      Ni  0.03474265  0.79038544  0.39886376     1.34870
C450        C  0.02815754  0.86291527  0.32843950     0.84480
O451        O  0.03913849  0.75727587  0.34108723    -0.79580
O452        O  0.06377261  0.77472085  0.37684634    -0.89860
C453        C  0.99865642  0.77646067  0.27978179     0.84050
O454        O  0.01268556  0.75678645  0.39469616    -0.68060
O455        O  0.96751874  0.86614105  0.31654271    -0.87350
C456        C  0.98918623  0.75499553  0.38264989     0.84880
C457        C  0.06022299  0.75706290  0.35725518     1.06450
H458        H  0.96451050  0.80481854  0.33287768     0.38250
O459        O  0.98295513  0.81342810  0.33187599    -1.10000
O460        O  0.01354623  0.86205713  0.35073864    -0.66660
Ni461      Ni  0.99064004  0.83214097  0.36645621     1.26350
O462        O  0.98471617  0.76591950  0.35889020    -0.66880
O463        O  0.95922459  0.85562547  0.36209684    -0.79180
C464        C  0.00196789  0.83201613  0.42527372     0.84270
O465        O  0.99794683  0.84797427  0.40375639    -0.66350
Ni466      Ni  0.98528256  0.83447944  0.29830306     1.27450
Ni467      Ni  0.01106026  0.78591032  0.33577954     1.26060
H468        H  0.03885155  0.81937118  0.35990840     0.38810
O469        O  0.19279536  0.70969520  0.44695475    -0.81140
O470        O  0.08291349  0.64897698  0.47692126    -0.65830
O471        O  0.15685697  0.67936912  0.47940680    -1.12440
C472        C  0.18291190  0.60308285  0.42718575     1.05740
O473        O  0.08606109  0.60885045  0.45350421    -0.79040
O474        O  0.13328942  0.60682981  0.48824442    -0.66620
Ni475      Ni  0.16184410  0.71818481  0.47025628     1.34870
C476        C  0.15673695  0.61335278  0.49934534     0.84480
O477        O  0.10821888  0.68762639  0.50585370    -0.79580
O478        O  0.13029003  0.72815723  0.49318948    -0.89860
C479        C  0.07155772  0.62735892  0.46629290     0.84050
O480        O  0.14161253  0.71711133  0.43676915    -0.68060
O481        O  0.16541699  0.59225718  0.44444195    -0.87350
C482        C  0.11869802  0.70517280  0.43126457     0.84880
C483        C  0.11296379  0.71395430  0.50848512     1.06450
H484        H  0.12985775  0.64923471  0.42861965     0.38250
O485        O  0.13535624  0.64233618  0.44681620    -1.10000
O486        O  0.17647276  0.62710791  0.48613911    -0.66660
Ni487      Ni  0.17373881  0.65431204  0.45446797     1.26350
O488        O  0.10579114  0.68989874  0.44912112    -0.66880
O489        O  0.18926458  0.62916131  0.42782407    -0.79180
C490        C  0.21368323  0.69731360  0.45703143     0.84270
O491        O  0.21119439  0.67065698  0.46246804    -0.66350
Ni492      Ni  0.12677267  0.60302852  0.44951162     1.27450
Ni493      Ni  0.12013873  0.66437069  0.47692145     1.26060
H494        H  0.16384211  0.67628790  0.49808857     0.38810
O495        O  0.95600843  0.67150577  0.49623178    -0.81140
O496        O  0.83838814  0.72738202  0.48843994    -0.65830
O497        O  0.89844884  0.67863146  0.51022967    -1.12440
C498        C  0.86190302  0.62034359  0.44322798     1.05740
O499        O  0.80720512  0.69224701  0.49212484    -0.79040
O500        O  0.83432826  0.64458449  0.51225024    -0.66620
Ni501      Ni  0.93356384  0.69338367  0.52111738     1.34870
C502        C  0.85480472  0.62860540  0.51820630     0.84480
O503        O  0.87769330  0.73315618  0.52633434    -0.79580
O504        O  0.91505035  0.71561471  0.54811237    -0.89860
C505        C  0.81309840  0.71882267  0.49104214     0.84050
O506        O  0.93385471  0.72329116  0.49385382    -0.68060
O507        O  0.84017987  0.62566416  0.45807767    -0.87350
C508        C  0.91871474  0.72632425  0.47226144     0.84880
C509        C  0.89558273  0.73352442  0.54570323     1.06450
H510        H  0.86216879  0.68546873  0.45400690     0.38250
O511        O  0.86122023  0.67705740  0.47249797    -1.10000
O512        O  0.87656096  0.62699629  0.50267027    -0.66660
Ni513      Ni  0.89414423  0.65492894  0.47835042     1.26350
O514        O  0.89246186  0.72196361  0.47204664    -0.66880
O515        O  0.88567518  0.63230015  0.44700339    -0.79180
C516        C  0.95386609  0.64664357  0.48665898     0.84270
O517        O  0.92986383  0.63483510  0.48274641    -0.66350
Ni518      Ni  0.82585070  0.65922655  0.47598171     1.27450
Ni519      Ni  0.86908037  0.70440303  0.49978219     1.26060
H520        H  0.89178576  0.66867332  0.52671855     0.38810
O521        O  0.83581934  0.02599475  0.54473827    -0.81140
O522        O  0.78502033  0.01446357  0.66813927    -0.65830
O523        O  0.82619453  0.03126666  0.60123977    -1.12440
C524        C  0.88741863  0.96743217  0.63933875     1.05740
O525        O  0.82135341  0.02028255  0.69586779    -0.79040
O526        O  0.86580840  0.03996195  0.66027033    -0.66620
Ni527      Ni  0.80417034  0.03125650  0.56809971     1.34870
C528        C  0.88056665  0.04245911  0.63796298     0.84480
O529        O  0.77991455  0.05427432  0.62907761    -0.79580
O530        O  0.77089746  0.03784568  0.58839556    -0.89860
C531        C  0.79502924  0.01637308  0.69242389     0.84050
O532        O  0.80073164  0.99175553  0.57395554    -0.68060
O533        O  0.88450838  0.98533537  0.65890451    -0.87350
C534        C  0.79000097  0.97967449  0.59542500     0.84880
C535        C  0.77079177  0.05830024  0.60498224     1.06450
H536        H  0.82290072  0.97719401  0.64456351     0.38250
O537        O  0.83143417  0.99575532  0.64230543    -1.10000
O538        O  0.87876052  0.02459976  0.61832759    -0.66660
Ni539      Ni  0.84989635  0.99882407  0.60677547     1.26350
O540        O  0.78290507  0.99362176  0.61722102    -0.66880
O541        O  0.87311329  0.96771418  0.61681745    -0.79180
C542        C  0.85831364  0.01205004  0.54621259     0.84270
O543        O  0.86680312  0.00018626  0.56896027    -0.66350
Ni544      Ni  0.85261058  0.00378553  0.67479107     1.27450
Ni545      Ni  0.80491891  0.02359519  0.63511551     1.26060
H546        H  0.83625137  0.04904438  0.60265731     0.38810
O547        O  0.80706583  0.00843215  0.28540675    -0.81140
O548        O  0.86023406  0.00040388  0.41000455    -0.65830
O549        O  0.81955820  0.99028232  0.34090100    -1.12440
C550        C  0.76123518  0.05581360  0.37689669     1.05740
O551        O  0.83150085  0.02826642  0.43434294    -0.79040
O552        O  0.79479044  0.99218344  0.41043607    -0.66620
Ni553      Ni  0.83848856  0.99206845  0.30596284     1.34870
C554        C  0.78122707  0.97926660  0.39160223     0.84480
O555        O  0.86232234  0.96400559  0.36724060    -0.79580
O556        O  0.87067347  0.97342169  0.32174800    -0.89860
C557        C  0.85338396  0.01333275  0.43244576     0.84050
O558        O  0.85411647  0.02866981  0.31340058    -0.68060
O559        O  0.76337434  0.03625370  0.39469614    -0.87350
C560        C  0.87037745  0.03382276  0.33371051     0.84880
C561        C  0.87533498  0.95971170  0.34443790     1.06450
H562        H  0.82848099  0.04690404  0.37436881     0.38250
O563        O  0.81812658  0.02956744  0.37813227    -1.10000
O564        O  0.77296894  0.99177556  0.36913090    -0.66660
Ni565      Ni  0.79450650  0.01998580  0.34696060     1.26350
O566        O  0.86913091  0.01995793  0.35678321    -0.66880
O567        O  0.77084984  0.05200777  0.35279915    -0.79180
C568        C  0.78085706  0.00809973  0.29112844     0.84270
O569        O  0.77216166  0.00955399  0.31612336    -0.66350
Ni570      Ni  0.79829483  0.03183040  0.41275345     1.27450
Ni571      Ni  0.84066232  0.99636197  0.37426299     1.26060
H572        H  0.81030222  0.97199319  0.34205053     0.38810
O573        O  0.67934295  0.07014258  0.48080638    -0.81140
O574        O  0.71634308  0.19445213  0.48846192    -0.65830
O575        O  0.68163903  0.12349890  0.50621578    -1.12440
C576        C  0.60904920  0.15334319  0.45188340     1.05740
O577        O  0.67895065  0.22170686  0.48349717    -0.79040
O578        O  0.64180794  0.18641420  0.51407685    -0.66620
Ni579      Ni  0.70324105  0.08982063  0.50622632     1.34870
C580        C  0.62954108  0.16372609  0.52254301     0.84480
O581        O  0.72779547  0.15430454  0.52528256    -0.79580
O582        O  0.72811765  0.10689345  0.53180226    -0.89860
C583        C  0.70543324  0.21844529  0.48422660     0.84050
O584        O  0.72637064  0.09881142  0.47510181    -0.68060
O585        O  0.61371924  0.17594850  0.46550683    -0.87350
C586        C  0.72931416  0.12102179  0.46032025     0.84880
C587        C  0.73561743  0.13201371  0.53800655     1.06450
H588        H  0.67743757  0.16327617  0.45204669     0.38250
O589        O  0.67025433  0.16314144  0.47096255    -1.10000
O590        O  0.62898704  0.14101039  0.50824735    -0.66660
Ni591      Ni  0.65316447  0.12676288  0.47924223     1.26350
O592        O  0.72171611  0.14532687  0.46775366    -0.66880
O593        O  0.62527355  0.13224757  0.45232826    -0.79180
C594        C  0.65325366  0.06698070  0.48448814     0.84270
O595        O  0.63790435  0.08880949  0.48731670    -0.66350
Ni596      Ni  0.64759365  0.19596931  0.47562018     1.27450
Ni597      Ni  0.69940310  0.15910322  0.49773996     1.26060
H598        H  0.67365203  0.12470218  0.52474658     0.38810
O599        O  0.70001820  0.80012523  0.49774657    -0.81140
O600        O  0.64413167  0.92462696  0.48405766    -0.65830
O601        O  0.68585919  0.85486603  0.47592443    -1.12440
C602        C  0.74170688  0.89892411  0.54512537     1.05740
O603        O  0.68386143  0.94727129  0.47896987    -0.79040
O604        O  0.73482959  0.92760813  0.48170901    -0.66620
Ni605      Ni  0.66759652  0.81889854  0.48047843     1.34870
C606        C  0.74012756  0.90652333  0.46655151     0.84480
O607        O  0.64024300  0.87855822  0.45048562    -0.79580
O608        O  0.63449310  0.83221549  0.46100646    -0.89860
C609        C  0.65763558  0.94804146  0.48175429     0.84050
O610        O  0.65091435  0.82799174  0.51589407    -0.68060
O611        O  0.72938897  0.92181801  0.53854879    -0.87350
C612        C  0.63555490  0.84951038  0.52023945     0.84880
C613        C  0.62799585  0.85474252  0.44744992     1.06450
H614        H  0.68003395  0.89440653  0.52678631     0.38250
O615        O  0.68948712  0.89682114  0.50900059    -1.10000
O616        O  0.73369003  0.88131252  0.47313461    -0.66660
Ni617      Ni  0.71279959  0.86470331  0.50347919     1.26350
O618        O  0.63817193  0.87249008  0.50619304    -0.66880
O619        O  0.73948429  0.87580750  0.53164612    -0.79180
C620        C  0.72625743  0.80639314  0.49759825     0.84270
O621        O  0.73457755  0.83198253  0.49701460    -0.66350
Ni622      Ni  0.70633529  0.93354500  0.50880946     1.27450
Ni623      Ni  0.66422915  0.88876082  0.47973489     1.26060
H624        H  0.69421172  0.85502339  0.45748268     0.38810
O625        O  0.69945176  0.01006705  0.17905399    -0.81140
O626        O  0.57289147  0.00740065  0.13059608    -0.65830
O627        O  0.64159974  0.02117513  0.17016982    -1.12440
C628        C  0.61763622  0.94478847  0.22456423     1.05740
O629        O  0.55250173  0.97233393  0.15534769    -0.79040
O630        O  0.57300643  0.00456353  0.19710528    -0.66620
Ni631      Ni  0.67564378  0.02662388  0.15001445     1.34870
C632        C  0.59119046  0.01858740  0.21060303     0.84480
O633        O  0.61082173  0.04906031  0.13189632    -0.79580
O634        O  0.65628374  0.04594556  0.12019970    -0.89860
C635        C  0.55208676  0.99083626  0.13579870     0.84050
O636        O  0.67142170  0.99102437  0.13163605    -0.68060
O637        O  0.59455823  0.95757051  0.22194924    -0.87350
C638        C  0.65083027  0.98462120  0.11604817     0.84880
C639        C  0.63186696  0.05643812  0.11715892     1.06450
H640        H  0.61460883  0.96182711  0.15553241     0.38250
O641        O  0.60916134  0.97687999  0.16788140    -1.10000
O642        O  0.61531358  0.00846223  0.21672164    -0.66660
Ni643      Ni  0.63990092  0.98759648  0.19128676     1.26350
O644        O  0.62696521  0.99632010  0.11839993    -0.66880
O645        O  0.63904823  0.95278203  0.21131088    -0.79180
C646        C  0.69477482  0.00464274  0.20492099     0.84270
O647        O  0.67025526  0.99907166  0.21380125    -0.66350
Ni648      Ni  0.57577024  0.96611381  0.18750174     1.27450
Ni649      Ni  0.60835349  0.01341354  0.14966155     1.26060
H650        H  0.63886577  0.03765849  0.18162142     0.38810
O651        O  0.42086095  0.99808459  0.08481258    -0.81140
O652        O  0.29603291  0.99745488  0.14472283    -0.65830
O653        O  0.37052539  0.01462133  0.11353150    -1.12440
C654        C  0.39473259  0.95420819  0.18827756     1.05740
O655        O  0.31612876  0.01324985  0.18221693    -0.79040
O656        O  0.36779610  0.01608507  0.20204558    -0.66620
Ni657      Ni  0.38070763  0.00395322  0.07694740     1.34870
C658        C  0.38180057  0.03323342  0.18674284     0.84480
O659        O  0.31702998  0.02912613  0.09870077    -0.79580
O660        O  0.34253702  0.00970878  0.06485000    -0.89860
C661        C  0.29433778  0.00351906  0.17083360     0.84050
O662        O  0.37241917  0.96585914  0.08692087    -0.68060
O663        O  0.37047391  0.95723781  0.19919254    -0.87350
C664        C  0.34789025  0.95622462  0.09180977     0.84880
C665        C  0.32506358  0.02809285  0.07327240     1.06450
H666        H  0.34954647  0.96256567  0.14845695     0.38250
O667        O  0.35213252  0.98232359  0.15291684    -1.10000
O668        O  0.38897850  0.02725015  0.16225420    -0.66660
Ni669      Ni  0.38862465  0.99333547  0.14182235     1.26350
O670        O  0.32865896  0.97128038  0.10317856    -0.66880
O671        O  0.40542969  0.97173624  0.17071404    -0.79180
C672        C  0.43605192  0.00110492  0.10655019     0.84270
O673        O  0.42531648  0.00435217  0.13043157    -0.66350
Ni674      Ni  0.34327482  0.98567813  0.19126854     1.27450
Ni675      Ni  0.33294119  0.00520552  0.12663186     1.26060
H676        H  0.37387110  0.03476136  0.11529322     0.38810
O677        O  0.49115419  0.20494647  0.28839168    -0.81140
O678        O  0.49447279  0.07906313  0.34551025    -0.65830
O679        O  0.50861079  0.14964698  0.30472898    -1.12440
C680        C  0.44314977  0.10640202  0.24401381     1.05740
O681        O  0.50369183  0.05744443  0.30649976    -0.79040
O682        O  0.50289314  0.07722545  0.25471442    -0.66620
Ni683      Ni  0.50221169  0.18497788  0.32243660     1.34870
C684        C  0.52035924  0.09725538  0.25101960     0.84480
O685        O  0.52757853  0.12529939  0.35350877    -0.79580
O686        O  0.51475025  0.17057331  0.35808972    -0.89860
C687        C  0.49924618  0.05610263  0.33247661     0.84050
O688        O  0.46434951  0.17515031  0.33149153    -0.68060
O689        O  0.44671575  0.08372998  0.25818481    -0.87350
C690        C  0.45676874  0.15361750  0.34604730     0.84880
C691        C  0.52792600  0.14866167  0.36636977     1.06450
H692        H  0.45639650  0.11060495  0.30524015     0.38250
O693        O  0.47509584  0.10793979  0.29797686    -1.10000
O694        O  0.51575462  0.12269399  0.25773420    -0.66660
Ni695      Ni  0.48385726  0.14010715  0.27504390     1.26350
O696        O  0.47147390  0.13124428  0.34829887    -0.66880
O697        O  0.45829250  0.12883792  0.24591461    -0.79180
C698        C  0.49195850  0.19930142  0.26238085     0.84270
O699        O  0.49266556  0.17381399  0.25376873    -0.66350
Ni700      Ni  0.47502284  0.07135194  0.28249613     1.27450
Ni701      Ni  0.50135406  0.11546143  0.32617283     1.26060
H702        H  0.52789786  0.14964368  0.29845526     0.38810
O703        O  0.48638079  0.94053791  0.30330279    -0.81140
O704        O  0.50796935  0.81761852  0.25509674    -0.65830
O705        O  0.48409137  0.88309586  0.29351797    -1.12440
C706        C  0.54394193  0.85020682  0.36244642     1.05740
O707        O  0.50642077  0.78705353  0.29067617    -0.79040
O708        O  0.47965450  0.81685993  0.33308280    -0.66620
Ni709      Ni  0.48801707  0.91690136  0.27136372     1.34870
C710        C  0.47047290  0.83866897  0.34546303     0.84480
O711        O  0.46952878  0.85620993  0.24504522    -0.79580
O712        O  0.48904844  0.89732584  0.23670462    -0.89860
C713        C  0.50724471  0.79249263  0.26436660     0.84050
O714        O  0.52704490  0.91213433  0.27554048    -0.68060
O715        O  0.53133870  0.82667321  0.35761583    -0.87350
C716        C  0.54019960  0.89113379  0.26565409     0.84880
C717        C  0.47078132  0.87890574  0.23104730     1.06450
H718        H  0.54033824  0.84521653  0.29741394     0.38250
O719        O  0.52105955  0.84431451  0.30363689    -1.10000
O720        O  0.48376716  0.86232300  0.34592123    -0.66660
Ni721      Ni  0.51201838  0.87913650  0.32177059     1.26350
O722        O  0.52737930  0.86942367  0.25604252    -0.66880
O723        O  0.53980487  0.87281971  0.34851449    -0.79180
C724        C  0.49506313  0.93897299  0.32823901     0.84270
O725        O  0.50479268  0.91602562  0.33892900    -0.66350
Ni726      Ni  0.51767107  0.80934583  0.32348952     1.27450
Ni727      Ni  0.49589116  0.84994260  0.27405404     1.26060
H728        H  0.46519520  0.88090639  0.30064243     0.38810
O729        O  0.54050387  0.18054933  0.95835149    -0.81140
O730        O  0.65432817  0.24299202  0.98066641    -0.65830
O731        O  0.59942019  0.19010556  0.95342641    -1.12440
C732        C  0.62439394  0.13791072  0.02987173     1.05740
O733        O  0.68512053  0.20814756  0.98261830    -0.79040
O734        O  0.66356621  0.15694200  0.96656179    -0.66620
Ni735      Ni  0.56638726  0.20214968  0.93565707     1.34870
C736        C  0.64458951  0.13919246  0.96016252     0.84480
O737        O  0.62103930  0.24493450  0.93648621    -0.79580
O738        O  0.58898682  0.22347488  0.91022643    -0.89860
C739        C  0.67962360  0.23459539  0.98237073     0.84050
O740        O  0.56034367  0.23366892  0.95985398    -0.68060
O741        O  0.64869643  0.14525283  0.02078961    -0.87350
C742        C  0.57161023  0.23967692  0.98312962     0.84880
C743        C  0.60622393  0.24348508  0.91471033     1.06450
H744        H  0.62528874  0.20246016  0.01400202     0.38250
O745        O  0.62948303  0.19292142  0.99674031    -1.10000
O746        O  0.61989092  0.14000488  0.97018331    -0.66660
Ni747      Ni  0.59840342  0.16899815  0.98767422     1.26350
O748        O  0.59752956  0.23601637  0.98802568    -0.66880
O749        O  0.60150965  0.14892242  0.02179040    -0.79180
C750        C  0.54185466  0.15607241  0.96946389     0.84270
O751        O  0.56496229  0.14643818  0.97890497    -0.66350
Ni752      Ni  0.66518454  0.17687736  0.00087612     1.27450
Ni753      Ni  0.62592690  0.21809168  0.96629489     1.26060
H754        H  0.60911724  0.17925667  0.93945922     0.38810
O755        O  0.42302878  0.15465817  0.00260158    -0.81140
O756        O  0.30605344  0.21215522  0.97562701    -0.65830
O757        O  0.36752547  0.16636824  0.99676992    -1.12440
C758        C  0.34429912  0.11454257  0.91842708     1.05740
O759        O  0.27715844  0.17714926  0.96436147    -0.79040
O760        O  0.30505721  0.12974934  0.98366619    -0.66620
Ni761      Ni  0.40011615  0.18700094  0.00708804     1.34870
C762        C  0.32536001  0.11407337  0.99082336     0.84480
O763        O  0.33754374  0.21031988  0.02044268    -0.79580
O764        O  0.38176338  0.22206660  0.01415557    -0.89860
C765        C  0.28161896  0.20305992  0.97049509     0.84050
O766        O  0.40341516  0.19688992  0.96898233    -0.68060
O767        O  0.32029374  0.11781302  0.92974242    -0.87350
C768        C  0.38537577  0.21162029  0.95602634     0.84880
C769        C  0.35842520  0.22553573  0.02610884     1.06450
H770        H  0.33826436  0.18007065  0.93733474     0.38250
O771        O  0.33526204  0.16816905  0.95366597    -1.10000
O772        O  0.34984779  0.11566827  0.97969347    -0.66660
Ni773      Ni  0.36873031  0.14744350  0.96110051     1.26350
O774        O  0.36066491  0.21599259  0.96563787    -0.66880
O775        O  0.36606040  0.12836412  0.92612349    -0.79180
C776        C  0.42606648  0.13703264  0.98310532     0.84270
O777        O  0.40593298  0.13029870  0.96656596    -0.66350
Ni778      Ni  0.30117463  0.14806407  0.94835662     1.27450
Ni779      Ni  0.33660270  0.18956309  0.98662301     1.26060
H780        H  0.36222634  0.15371075  0.01195670     0.38810
O781        O  0.50268346  0.37659385  0.05112380    -0.81140
O782        O  0.49658358  0.31293671  0.17374754    -0.65830
O783        O  0.50647475  0.34217739  0.09782036    -1.12440
C784        C  0.42624311  0.28428434  0.08726028     1.05740
O785        O  0.50348887  0.27448322  0.15031466    -0.79040
O786        O  0.49815522  0.26218863  0.09727834    -0.66620
Ni787      Ni  0.51057422  0.38155863  0.09070794     1.34870
C788        C  0.50174632  0.27459754  0.07405209     0.84480
O789        O  0.53386168  0.35105325  0.14904424    -0.79580
O790        O  0.52129205  0.39109681  0.12824872    -0.89860
C791        C  0.49884170  0.28579519  0.17362614     0.84050
O792        O  0.47243799  0.38434121  0.10174759    -0.68060
O793        O  0.44005294  0.26695029  0.10264390    -0.87350
C794        C  0.46333728  0.37899568  0.12649229     0.84880
C795        C  0.53649988  0.37759602  0.14541256     1.06450
H796        H  0.45391464  0.31621882  0.13252597     0.38250
O797        O  0.47060188  0.31030484  0.12274313    -1.10000
O798        O  0.48986952  0.29740157  0.06759262    -0.66660
Ni799      Ni  0.47054507  0.32638691  0.08671703     1.26350
O800        O  0.47551684  0.36170198  0.14375599    -0.66880
O801        O  0.43543352  0.30868796  0.07930918    -0.79180
C802        C  0.48612030  0.36054055  0.03758456     0.84270
O803        O  0.46993562  0.34281032  0.04987161    -0.66350
Ni804      Ni  0.47217991  0.27057194  0.12640859     1.27450
Ni805      Ni  0.50183840  0.33024133  0.13631653     1.26060
H806        H  0.52198573  0.33223618  0.08951102     0.38810
O807        O  0.50586044  0.27985920  0.79130306    -0.81140
O808        O  0.48031094  0.33547491  0.90377597    -0.65830
O809        O  0.47430329  0.30996736  0.82851295    -1.12440
C810        C  0.52827681  0.38790496  0.80754509     1.05740
O811        O  0.49648330  0.37954976  0.89971876    -0.79040
O812        O  0.46335275  0.37810421  0.85188626    -0.66620
Ni813      Ni  0.48205634  0.27092916  0.82216378     1.34870
C814        C  0.45524848  0.37721621  0.82663024     0.84480
O815        O  0.44932887  0.29765095  0.87846020    -0.79580
O816        O  0.45895419  0.25898825  0.85341544    -0.89860
C817        C  0.48816236  0.35857028  0.91469875     0.84050
O818        O  0.51621154  0.27056507  0.84161794    -0.68060
O819        O  0.50783894  0.39693886  0.82153872    -0.87350
C820        C  0.52381496  0.28323293  0.86325826     0.84880
C821        C  0.44529631  0.27183044  0.87243092     1.06450
H822        H  0.52535091  0.34151418  0.85688888     0.38250
O823        O  0.50680817  0.34708903  0.85119328    -1.10000
O824        O  0.46880985  0.36329890  0.80782997    -0.66660
Ni825      Ni  0.50018814  0.33615570  0.81254253     1.26350
O826        O  0.50683911  0.29747632  0.87766168    -0.66880
O827        O  0.52822040  0.36252040  0.79907179    -0.79180
C828        C  0.49889337  0.29500224  0.77074978     0.84270
O829        O  0.49398902  0.32140487  0.77460442    -0.66350
Ni830      Ni  0.50151840  0.38599228  0.85970647     1.27450
Ni831      Ni  0.47782433  0.32266223  0.86603876     1.26060
H832        H  0.45559876  0.31378782  0.82196238     0.38810
O833        O  0.17002707  0.28659343  0.96718471    -0.81140
O834        O  0.12822627  0.41871020  0.96637705    -0.65830
O835        O  0.16293595  0.34572468  0.95245625    -1.12440
C836        C  0.22350399  0.36979506  0.02130891     1.05740
O837        O  0.16177893  0.43919711  0.99209612    -0.79040
O838        O  0.19782149  0.41184754  0.95835359    -0.66620
Ni839      Ni  0.14105829  0.31168129  0.95178042     1.34870
C840        C  0.20887621  0.39087354  0.94626511     0.84480
O841        O  0.12243439  0.37721806  0.92704251    -0.79580
O842        O  0.11078291  0.33139635  0.93410364    -0.89860
C843        C  0.13844926  0.44003089  0.97958459     0.84050
O844        O  0.12564415  0.31877219  0.98794872    -0.68060
O845        O  0.22413410  0.39085134  0.00473496    -0.87350
C846        C  0.11265891  0.34101005  0.99523221     0.84880
C847        C  0.10870424  0.35482651  0.92072676     1.06450
H848        H  0.15614325  0.37854607  0.00988644     0.38250
O849        O  0.16705911  0.38143236  0.99300379    -1.10000
O850        O  0.21326586  0.36746038  0.95911218    -0.66660
Ni851      Ni  0.18654697  0.34759377  0.98355720     1.26350
O852        O  0.11484869  0.36475939  0.98236614    -0.66880
O853        O  0.20818435  0.34881858  0.01637134    -0.79180
C854        C  0.19621405  0.29054592  0.97120021     0.84270
O855        O  0.20621715  0.31512517  0.97349511    -0.66350
Ni856      Ni  0.19158873  0.41327993  0.99733019     1.27450
Ni857      Ni  0.14457947  0.38111144  0.95981292     1.26060
H858        H  0.17322480  0.34711816  0.93504234     0.38810
O859        O  0.20026986  0.69784685  0.96701929    -0.81140
O860        O  0.13264086  0.58086908  0.98412028    -0.65830
O861        O  0.18167408  0.64631703  0.99273106    -1.12440
C862        C  0.23194011  0.60075419  0.92067484     1.05740
O863        O  0.16978839  0.55418559  0.98530231    -0.79040
O864        O  0.22274131  0.56874315  0.98098411    -0.66620
Ni865      Ni  0.16809794  0.68400093  0.98897166     1.34870
C866        C  0.23035424  0.58744750  0.99819026     0.84480
O867        O  0.13386580  0.62684234  0.01890129    -0.79580
O868        O  0.13648291  0.67449843  0.01284489    -0.89860
C869        C  0.14351112  0.55621332  0.98443832     0.84050
O870        O  0.14601097  0.67778766  0.95577276    -0.68060
O871        O  0.21575690  0.57951238  0.92492567    -0.87350
C872        C  0.12951272  0.65700914  0.95084957     0.84880
C873        C  0.12643457  0.65208264  0.02460833     1.06450
H874        H  0.17132690  0.61045048  0.94104266     0.38250
O875        O  0.18048683  0.60572892  0.95839576    -1.10000
O876        O  0.22608484  0.61373363  0.99451997    -0.66660
Ni877      Ni  0.20775634  0.63473007  0.96515736     1.26350
O878        O  0.13139974  0.63327660  0.96346398    -0.66880
O879        O  0.23342032  0.62219680  0.93663883    -0.79180
C880        C  0.22602723  0.69126380  0.97029841     0.84270
O881        O  0.23289168  0.66538616  0.97293052    -0.66350
Ni882      Ni  0.19260340  0.56779412  0.95517813     1.27450
Ni883      Ni  0.15640920  0.61481686  0.98871227     1.26060
H884        H  0.18998121  0.64497293  0.01103512     0.38810
O885        O  0.31154331  0.48483976  0.18236670    -0.81140
O886        O  0.36310802  0.49129353  0.05472736    -0.65830
O887        O  0.32498099  0.50424120  0.12593026    -1.12440
C888        C  0.26239807  0.44032393  0.09364564     1.05740
O889        O  0.33013630  0.46702187  0.03156014    -0.79040
O890        O  0.29534278  0.50342510  0.05655357    -0.66620
Ni891      Ni  0.34378215  0.49997888  0.16078253     1.34870
C892        C  0.28115097  0.51616766  0.07497070     0.84480
O893        O  0.37106579  0.52648552  0.09888317    -0.79580
O894        O  0.37703907  0.51680368  0.14468238    -0.89860
C895        C  0.35346467  0.48000731  0.03226975     0.84050
O896        O  0.35705057  0.46264611  0.15238608    -0.68060
O897        O  0.26405350  0.45932233  0.07514416    -0.87350
C898        C  0.37267686  0.45666849  0.13161474     0.84880
C899        C  0.38427630  0.52917089  0.12183770     1.06450
H900        H  0.32808171  0.44761616  0.09239692     0.38250
O901        O  0.31922880  0.46558093  0.08873881    -1.10000
O902        O  0.27583174  0.50510746  0.09924055    -0.66660
Ni903      Ni  0.29722566  0.47654941  0.12092700     1.26350
O904        O  0.37185310  0.47017005  0.10828834    -0.66880
O905        O  0.27160282  0.44557857  0.11738882    -0.79180
C906        C  0.28526422  0.48565275  0.17747591     0.84270
O907        O  0.27647483  0.48796616  0.15267935    -0.66350
Ni908      Ni  0.29813257  0.46361606  0.05506896     1.27450
Ni909      Ni  0.34530195  0.49652827  0.09186874     1.26060
H910        H  0.31721645  0.52306888  0.12491871     0.38810
O911        O  0.32453450  0.47014197  0.91855226    -0.81140
O912        O  0.27226755  0.48875762  0.79641489    -0.65830
O913        O  0.31404266  0.46717928  0.86149693    -1.12440
C914        C  0.37861037  0.53345215  0.82831499     1.05740
O915        O  0.30811031  0.49105860  0.76669055    -0.79040
O916        O  0.35324785  0.46610804  0.79653538    -0.66620
Ni917      Ni  0.29232357  0.46808817  0.89526252     1.34870
C918        C  0.36811251  0.45977163  0.81773215     0.84480
O919        O  0.26621570  0.44722007  0.83535628    -0.79580
O920        O  0.25777155  0.46520366  0.87598769    -0.89860
C921        C  0.28166997  0.49205702  0.77170705     0.84050
O922        O  0.29245611  0.50791043  0.89038826    -0.68060
O923        O  0.37399484  0.52028206  0.80551093    -0.87350
C924        C  0.28106207  0.52061720  0.86987856     0.84880
C925        C  0.25414579  0.44564612  0.85878431     1.06450
H926        H  0.31257188  0.52458163  0.82341395     0.38250
O927        O  0.32040858  0.50579081  0.82288842    -1.10000
O928        O  0.36655694  0.47305155  0.84085214    -0.66660
Ni929      Ni  0.33971031  0.49848341  0.85725597     1.26350
O930        O  0.27250306  0.50720306  0.84831746    -0.66880
O931        O  0.36409407  0.52938814  0.85036718    -0.79180
C932        C  0.34848135  0.48193549  0.91681567     0.84270
O933        O  0.35790419  0.49300723  0.89388061    -0.66350
Ni934      Ni  0.34058411  0.50399871  0.78863640     1.27450
Ni935      Ni  0.29277526  0.47745789  0.82872380     1.26060
H936        H  0.32292643  0.44901485  0.85928817     0.38810
O937        O  0.00805633  0.56671034  0.10143852    -0.81140
O938        O  0.00044277  0.68671780  0.17022099    -0.65830
O939        O  0.01364482  0.61219958  0.13858184    -1.12440
C940        C  0.94126863  0.58597691  0.20059978     1.05740
O941        O  0.00559539  0.66561726  0.21138176    -0.79040
O942        O  0.00997263  0.61002423  0.21968206    -0.66620
Ni943      Ni  0.01029487  0.60799916  0.09928438     1.34870
C944        C  0.01691930  0.58795409  0.20670264     0.84480
O945        O  0.03623070  0.66644155  0.12805635    -0.79580
O946        O  0.01339203  0.64773841  0.09399720    -0.89860
C947        C  0.00170293  0.68805931  0.19700302     0.84050
O948        O  0.97143459  0.61314773  0.10596590    -0.68060
O949        O  0.95221260  0.60364944  0.21768412    -0.87350
C950        C  0.96118707  0.63684067  0.11366122     0.84880
C951        C  0.03513781  0.65982730  0.10241400     1.06450
H952        H  0.96057144  0.63996083  0.16977637     0.38250
O953        O  0.97867847  0.63230731  0.17437204    -1.10000
O954        O  0.00540859  0.58011697  0.18432400    -0.66660
Ni955      Ni  0.98138150  0.59658385  0.15721360     1.26350
O956        O  0.97573170  0.65609587  0.12633921    -0.66880
O957        O  0.94948463  0.58324822  0.17570269    -0.79180
C958        C  0.99524046  0.55038066  0.11873976     0.84270
O959        O  0.98309090  0.56012719  0.14016414    -0.66350
Ni960      Ni  0.97927800  0.63462454  0.21367839     1.27450
Ni961      Ni  0.00707923  0.65018309  0.15241770     1.26060
H962        H  0.03109903  0.60465269  0.14538721     0.38810
O963        O  0.98317964  0.27493435  0.15074842    -0.81140
O964        O  0.99611215  0.40667501  0.10724709    -0.65830
O965        O  0.00057001  0.33203044  0.14209300    -1.12440
C966        C  0.91886676  0.36596474  0.18851729     1.05740
O967        O  0.99298249  0.42161180  0.15016172    -0.79040
O968        O  0.97700747  0.39722321  0.19809826    -0.66620
Ni969      Ni  0.99899479  0.29879101  0.12028211     1.34870
C970        C  0.99511829  0.37827591  0.20209222     0.84480
O971        O  0.03131403  0.36096448  0.10184361    -0.79580
O972        O  0.01804296  0.31730508  0.08894766    -0.89860
C973        C  0.99498461  0.42734184  0.12438143     0.84050
O974        O  0.96300245  0.30968686  0.10598317    -0.68060
O975        O  0.92432894  0.39017251  0.17748589    -0.87350
C976        C  0.95904621  0.33230712  0.09159527     0.84880
C977        C  0.03384580  0.33930007  0.08639182     1.06450
H978        H  0.94862092  0.36951750  0.13238562     0.38250
O979        O  0.96469630  0.37178295  0.14429929    -1.10000
O980        O  0.99416785  0.35448293  0.19052944    -0.66660
Ni981      Ni  0.96844431  0.33795373  0.16531876     1.26350
O982        O  0.97535522  0.35398319  0.09296013    -0.66880
O983        O  0.93586519  0.34514076  0.18831386    -0.79180
C984        C  0.97937131  0.27953216  0.17684107     0.84270
O985        O  0.97391495  0.30403422  0.18578616    -0.66350
Ni986      Ni  0.95862377  0.40576562  0.16375961     1.27450
Ni987      Ni  0.99835210  0.36799172  0.12308068     1.26060
H988        H  0.01762208  0.33143292  0.15284149     0.38810
O989        O  0.06865174  0.50312341  0.34686828    -0.81140
O990        O  0.18985063  0.48536257  0.28306290    -0.65830
O991        O  0.11565062  0.50321061  0.31184058    -1.12440
C992        C  0.08849615  0.42914596  0.25438757     1.05740
O993        O  0.16961887  0.49156397  0.24250405    -0.79040
O994        O  0.11594408  0.49930710  0.23604838    -0.66620
Ni995      Ni  0.10946003  0.50689105  0.35074064     1.34870
C996        C  0.09287999  0.50496367  0.24761144     0.84480
O997        O  0.16997071  0.52505085  0.31975772    -0.79580
O998        O  0.14832622  0.51347135  0.35947929    -0.89860
C999        C  0.19157172  0.48631405  0.25628493     0.84050
O1000       O  0.11620225  0.46721231  0.35264803    -0.68060
O1001       O  0.10583506  0.44126522  0.23733843    -0.87350
C1002       C  0.13964995  0.45557508  0.34663979     0.84880
C1003       C  0.16715529  0.52716127  0.34598403     1.06450
H1004       H  0.14349303  0.44682690  0.28603004     0.38250
O1005       O  0.13571227  0.46478137  0.28024384    -1.10000
O1006       O  0.08320316  0.49088786  0.26817269    -0.66660
Ni1007     Ni  0.10006915  0.46857175  0.29685721     1.26350
O1008       O  0.15822217  0.46722094  0.33029098    -0.66880
O1009       O  0.08719303  0.43494543  0.28018888    -0.79180
C1010       C  0.05318169  0.48712338  0.33204670     0.84270
O1011       O  0.06380334  0.47101763  0.31391761    -0.66350
Ni1012     Ni  0.13797657  0.46640998  0.24088347     1.27450
Ni1013     Ni  0.15324457  0.49466256  0.29947386     1.26060
H1014       H  0.10904550  0.51995008  0.30222882     0.38810
O1015       O  0.77933594  0.49368897  0.29600884    -0.81140
O1016       O  0.91034775  0.49322953  0.33639177    -0.65830
O1017       O  0.83756767  0.50359500  0.30144534    -1.12440
C1018       C  0.86214515  0.41576990  0.25961928     1.05740
O1019       O  0.92715188  0.48430865  0.29480694    -0.79040
O1020       O  0.89956728  0.47276830  0.24863867    -0.66620
Ni1021     Ni  0.80520632  0.50853457  0.32398619     1.34870
C1022       C  0.88159165  0.49175569  0.24400896     0.84480
O1023       O  0.87030219  0.53390962  0.33835925    -0.79580
O1024       O  0.82617113  0.52715750  0.35312446    -0.89860
C1025       C  0.93145700  0.48878058  0.32040801     0.84050
O1026       O  0.81110256  0.47219573  0.34121209    -0.68060
O1027       O  0.88658137  0.41982518  0.26941934    -0.87350
C1028       C  0.83291244  0.46670617  0.35549072     0.84880
C1029       C  0.84999857  0.53967453  0.35453148     1.06450
H1030       H  0.86935012  0.44808290  0.31518084     0.38250
O1031       O  0.87292002  0.46313188  0.30174798    -1.10000
O1032       O  0.85690436  0.49092649  0.25334560    -0.66660
Ni1033     Ni  0.83913729  0.46863539  0.28140083     1.26350
O1034       O  0.85641099  0.47955929  0.35190560    -0.66880
O1035       O  0.84243906  0.43383133  0.26095978    -0.79180
C1036       C  0.78190945  0.48449912  0.27110071     0.84270
O1037       O  0.80508149  0.47534865  0.26180960    -0.66350
Ni1038     Ni  0.90587562  0.45232898  0.28248969     1.27450
Ni1039     Ni  0.87293881  0.49870641  0.31999099     1.26060
H1040       H  0.83888562  0.51988626  0.28906592     0.38810
O1041       O  0.17878354  0.98844206  0.52472374    -0.81140
O1042       O  0.23384613  0.98618499  0.63742514    -0.65830
O1043       O  0.18570747  0.96437125  0.57798240    -1.12440
C1044       C  0.12538574  0.02902535  0.61637836     1.05740
O1045       O  0.20026254  0.98259214  0.66966816    -0.79040
O1046       O  0.15115979  0.96069912  0.64553821    -0.66620
Ni1047     Ni  0.20058652  0.95944201  0.54167873     1.34870
C1048       C  0.13440477  0.95489846  0.62578456     0.84480
O1049       O  0.23906621  0.94761367  0.59698147    -0.79580
O1050       O  0.22282278  0.93021423  0.55655530    -0.89860
C1051       C  0.22623635  0.98545714  0.66292942     0.84050
O1052       O  0.23065930  0.98640870  0.54311801    -0.68060
O1053       O  0.13217820  0.01594114  0.63895267    -0.87350
C1054       C  0.23430619  0.00659972  0.55997564     0.84880
C1055       C  0.23925042  0.92953864  0.57733859     1.06450
H1056       H  0.19018695  0.02055374  0.61444659     0.38250
O1057       O  0.18280603  0.00144207  0.61596725    -1.10000
O1058       O  0.13465884  0.96829157  0.60245737    -0.66660
Ni1059     Ni  0.16024706  0.99425484  0.58379675     1.26350
O1060       O  0.22780466  0.00488242  0.58557781    -0.66880
O1061       O  0.13633470  0.02430443  0.59257041    -0.79180
C1062       C  0.15236794  0.98823382  0.52533755     0.84270
O1063       O  0.13958943  0.98748701  0.54896167    -0.66350
Ni1064     Ni  0.16638375  0.99794723  0.65203439     1.27450
Ni1065     Ni  0.21081731  0.97475781  0.60712443     1.26060
H1066       H  0.17690564  0.94658794  0.58335430     0.38810
O1067       O  0.17125243  0.01317565  0.40726231    -0.81140
O1068       O  0.22198020  0.99073858  0.28477234    -0.65830
O1069       O  0.18007639  0.01048413  0.35023921    -1.12440
C1070       C  0.12584708  0.93345393  0.32611428     1.05740
O1071       O  0.18454114  0.98754120  0.25802596    -0.79040
O1072       O  0.13721070  0.00189594  0.29089218    -0.66620
Ni1073     Ni  0.20233953  0.01769574  0.38241552     1.34870
C1074       C  0.12329363  0.00660011  0.31324407     0.84480
O1075       O  0.22328108  0.03549159  0.31851612    -0.79580
O1076       O  0.23477669  0.02383373  0.36037925    -0.89860
C1077       C  0.21124144  0.98918016  0.26066095     0.84050
O1078       O  0.20863971  0.97826795  0.38272091    -0.68060
O1079       O  0.12882599  0.94506727  0.30195698    -0.87350
C1080       C  0.22002614  0.96445516  0.36302999     0.84880
C1081       C  0.23327773  0.04247617  0.34155990     1.06450
H1082       H  0.18904180  0.95170691  0.31620246     0.38250
O1083       O  0.17839903  0.96901327  0.31540342    -1.10000
O1084       O  0.12835220  0.99404577  0.33627787    -0.66660
Ni1085     Ni  0.16022384  0.97473188  0.35085774     1.26350
O1086       O  0.22634104  0.97623393  0.33931382    -0.66880
O1087       O  0.14006844  0.94009705  0.34760887    -0.79180
C1088       C  0.15120850  0.99535668  0.40911742     0.84270
O1089       O  0.14428119  0.97914641  0.38877019    -0.66350
Ni1090     Ni  0.15682624  0.96755287  0.28235027     1.27450
Ni1091     Ni  0.20164229  0.00106879  0.31729970     1.26060
H1092       H  0.16804107  0.02640718  0.34646634     0.38810
O1093       O  0.32990664  0.05343145  0.46954949    -0.81140
O1094       O  0.27963186  0.16805206  0.46780312    -0.65830
O1095       O  0.32455005  0.10637260  0.44571012    -1.12440
C1096       C  0.39062492  0.14386541  0.50460232     1.05740
O1097       O  0.31395514  0.19978546  0.46289775    -0.79040
O1098       O  0.36009352  0.17339298  0.44021668    -0.66620
Ni1099     Ni  0.30821622  0.07034359  0.44064909     1.34870
C1100       C  0.37446666  0.15237890  0.43228114     0.84480
O1101       O  0.27260168  0.12811629  0.42961730    -0.79580
O1102       O  0.28656224  0.08652043  0.41174915    -0.89860
C1103       C  0.28780195  0.19352496  0.46433306     0.84050
O1104       O  0.27780223  0.07299196  0.46633354    -0.68060
O1105       O  0.38215161  0.16685064  0.49302836    -0.87350
C1106       C  0.27526578  0.08944562  0.48683178     0.84880
C1107       C  0.27241781  0.10929305  0.41071582     1.06450
H1108       H  0.32356441  0.14331863  0.50114204     0.38250
O1109       O  0.33034211  0.14469620  0.48210597    -1.10000
O1110       O  0.37580323  0.12916578  0.44610156    -0.66660
Ni1111     Ni  0.35179779  0.11146071  0.47388804     1.26350
O1112       O  0.28382058  0.11494168  0.48626056    -0.66880
O1113       O  0.37852630  0.11988529  0.50159434    -0.79180
C1114       C  0.35623402  0.05228623  0.46683805     0.84270
O1115       O  0.37047819  0.07544206  0.46609611    -0.66350
Ni1116     Ni  0.34755770  0.18091619  0.47731498     1.27450
Ni1117     Ni  0.30123987  0.13665248  0.45652441     1.26060
H1118       H  0.33260723  0.11155344  0.42779554     0.38810
O1119       O  0.32384095  0.78395935  0.45414093    -0.81140
O1120       O  0.37517500  0.91131309  0.46000089    -0.65830
O1121       O  0.33722030  0.83918884  0.47485067    -1.12440
C1122       C  0.26937829  0.88210025  0.41624438     1.05740
O1123       O  0.33644196  0.93115442  0.47293627    -0.79040
O1124       O  0.28783731  0.90824569  0.47977451    -0.66620
Ni1125     Ni  0.35596851  0.80401478  0.46983153     1.34870
C1126       C  0.28537323  0.88576200  0.49420395     0.84480
O1127       O  0.38558378  0.86575759  0.49294771    -0.79580
O1128       O  0.38945108  0.81869229  0.48734406    -0.89860
C1129       C  0.36162470  0.93373097  0.46548823     0.84050
O1130       O  0.36961247  0.81356922  0.43335332    -0.68060
O1131       O  0.28097990  0.90540980  0.42289510    -0.87350
C1132       C  0.38086085  0.83657133  0.42454471     0.84880
C1133       C  0.39723091  0.84221536  0.49794332     1.06450
H1134       H  0.33357138  0.88075819  0.42388140     0.38250
O1135       O  0.32700676  0.88157880  0.44298556    -1.10000
O1136       O  0.28864144  0.86124519  0.48440664    -0.66660
Ni1137     Ni  0.30616273  0.84744694  0.45119088     1.26350
O1138       O  0.37894700  0.85999196  0.43731925    -0.66880
O1139       O  0.27537954  0.85787346  0.42691291    -0.79180
C1140       C  0.29762580  0.78739005  0.45813231     0.84270
O1141       O  0.28734253  0.81216403  0.45995440    -0.66350
Ni1142     Ni  0.30921745  0.91722138  0.44757337     1.27450
Ni1143     Ni  0.35704551  0.87440853  0.46760499     1.26060
H1144       H  0.33149144  0.83918692  0.49424046     0.38810
O1145       O  0.99755047  0.19196526  0.67155292    -0.81140
O1146       O  0.00343224  0.13157521  0.55058211    -0.65830
O1147       O  0.01617073  0.17512049  0.61783010    -1.12440
C1148       C  0.94507474  0.23147920  0.57734615     1.05740
O1149       O  0.00486194  0.17124800  0.52623528    -0.79040
O1150       O  0.00068968  0.22408444  0.54477723    -0.66620
Ni1151     Ni  0.01238544  0.15781599  0.65366055     1.34870
C1152       C  0.02090691  0.22758123  0.56140329     0.84480
O1153       O  0.03898434  0.12811553  0.59463512    -0.79580
O1154       O  0.02950426  0.12289545  0.64056649    -0.89860
C1155       C  0.00462092  0.14446213  0.52689269     0.84050
O1156       O  0.97542363  0.14359542  0.64633922    -0.68060
O1157       O  0.94591009  0.21445632  0.55697260    -0.87350
C1158       C  0.96877721  0.12753651  0.62619856     0.84880
C1159       C  0.04262378  0.11607890  0.61820135     1.06450
H1160       H  0.96250426  0.16914487  0.58414748     0.38250
O1161       O  0.98013399  0.17808165  0.57907265    -1.10000
O1162       O  0.01962032  0.22084477  0.58708570    -0.66660
Ni1163     Ni  0.98966619  0.20343720  0.60841492     1.26350
O1164       O  0.98310866  0.12674772  0.60358080    -0.66880
O1165       O  0.96278478  0.23183420  0.59727098    -0.79180
C1166       C  0.99877637  0.21845356  0.66507678     0.84270
O1167       O  0.99976755  0.22663618  0.63955533    -0.66350
Ni1168     Ni  0.97538279  0.19273093  0.54259501     1.27450
Ni1169     Ni  0.00954437  0.15238841  0.58549083     1.26060
H1170       H  0.03501361  0.18274004  0.61665309     0.38810
O1171       O  0.02090758  0.15813474  0.40676582    -0.81140
O1172       O  0.00017487  0.20243857  0.28771781    -0.65830
O1173       O  0.98912678  0.16624012  0.35853206    -1.12440
C1174       C  0.03878934  0.09282999  0.31648321     1.05740
O1175       O  0.98790068  0.16594844  0.26208738    -0.79040
O1176       O  0.97129847  0.11947234  0.29485616    -0.66620
Ni1177     Ni  0.99746497  0.18685652  0.39169668     1.34870
C1178       C  0.96526472  0.10923459  0.31890074     0.84480
O1179       O  0.97161260  0.21627160  0.33240791    -0.79580
O1180       O  0.97494032  0.21740834  0.37923923    -0.89860
C1181       C  0.99242636  0.19256384  0.26459907     0.84050
O1182       O  0.03102574  0.20346567  0.37864866    -0.68060
O1183       O  0.02630261  0.10092700  0.29424783    -0.87350
C1184       C  0.04187208  0.20717191  0.35477474     0.84880
C1185       C  0.96537496  0.22627044  0.35604213     1.06450
H1186       H  0.03609899  0.15872033  0.31228238     0.38250
O1187       O  0.01664043  0.15324682  0.31445616    -1.10000
O1188       O  0.98028256  0.11305477  0.34032990    -0.66660
Ni1189     Ni  0.01232189  0.13480702  0.35058459     1.26350
O1190       O  0.02871542  0.20411548  0.33222566    -0.66880
O1191       O  0.03583604  0.10435451  0.34031702    -0.79180
C1192       C  0.01265588  0.13293929  0.41008559     0.84270
O1193       O  0.00698753  0.11835530  0.38843359    -0.66350
Ni1194     Ni  0.00652554  0.13391253  0.28093738     1.27450
Ni1195     Ni  0.99449013  0.18502042  0.32308772     1.26060
H1196       H  0.96979466  0.16006972  0.35991027     0.38810
O1197       O  0.20428151  0.30467322  0.45229561    -0.81140
O1198       O  0.08037421  0.35776764  0.46449781    -0.65830
O1199       O  0.15078297  0.31905769  0.47396228    -1.12440
C1200       C  0.11304599  0.26270799  0.40280742     1.05740
O1201       O  0.05806990  0.31660591  0.46606894    -0.79040
O1202       O  0.08025230  0.26502227  0.46023787    -0.66620
Ni1203     Ni  0.18539548  0.33817903  0.46739628     1.34870
C1204       C  0.09714834  0.26348152  0.48043915     0.84480
O1205       O  0.12628024  0.36431540  0.49758337    -0.79580
O1206       O  0.17122204  0.37228895  0.48469861    -0.89860
C1207       C  0.05758369  0.34342396  0.46722959     0.84050
O1208       O  0.17475160  0.35138733  0.43083374    -0.68060
O1209       O  0.09053479  0.27682586  0.40522147    -0.87350
C1210       C  0.15289356  0.36568600  0.42532424     0.84880
C1211       C  0.14965906  0.37725281  0.49991040     1.06450
H1212       H  0.11471065  0.32293938  0.42186057     0.38250
O1213       O  0.11069652  0.31382906  0.43959958    -1.10000
O1214       O  0.12226465  0.27214644  0.47863850    -0.66660
Ni1215     Ni  0.14180654  0.29051093  0.44813727     1.26350
O1216       O  0.13171450  0.36626205  0.44166378    -0.66880
O1217       O  0.13227519  0.26215814  0.42116390    -0.79180
C1218       C  0.19882174  0.27808386  0.45524946     0.84270
O1219       O  0.17377049  0.26911435  0.45774529    -0.66350
Ni1220     Ni  0.07511009  0.29669515  0.43571607     1.27450
Ni1221     Ni  0.11682555  0.33957186  0.46878972     1.26060
H1222       H  0.15115788  0.31147867  0.49279662     0.38810
O1223       O  0.92481709  0.38460589  0.48408648    -0.81140
O1224       O  0.79883458  0.32729596  0.47662373    -0.65830
O1225       O  0.87589196  0.35137603  0.49057950    -1.12440
C1226       C  0.89330656  0.28633550  0.41907671     1.05740
O1227       O  0.81575511  0.28514943  0.48431130    -0.79040
O1228       O  0.86666452  0.27230636  0.49000506    -0.66620
Ni1229     Ni  0.88472215  0.39070908  0.48916855     1.34870
C1230       C  0.88859423  0.28415740  0.49883535     0.84480
O1231       O  0.82391603  0.36420666  0.51338140    -0.79580
O1232       O  0.84669827  0.40140009  0.49611159    -0.89860
C1233       C  0.79496860  0.30049388  0.47888506     0.84050
O1234       O  0.87632127  0.38848273  0.45052147    -0.68060
O1235       O  0.87417081  0.27125964  0.43107503    -0.87350
C1236       C  0.85094728  0.38627625  0.44237934     0.84880
C1237       C  0.83078525  0.39018738  0.51438446     1.06450
H1238       H  0.84533551  0.32486511  0.43710783     0.38250
O1239       O  0.85218805  0.31861107  0.45507056    -1.10000
O1240       O  0.90189934  0.30253802  0.48449240    -0.66660
Ni1241     Ni  0.88986451  0.33118971  0.45882912     1.26350
O1242       O  0.83242535  0.37088925  0.45526494    -0.66880
O1243       O  0.90103586  0.31057087  0.42747615    -0.79180
C1244       C  0.93931034  0.36526091  0.47280694     0.84270
O1245       O  0.92802895  0.34391295  0.46151570    -0.66350
Ni1246     Ni  0.84486659  0.27910175  0.45783358     1.27450
Ni1247     Ni  0.83706411  0.34102666  0.48371226     1.26060
H1248       H  0.88190937  0.34339506  0.50818551     0.38810
C1249       C  0.02961204  0.35674760  0.47143535    -0.05720
C1250       C  0.01573794  0.36916053  0.44858242    -0.33150
C1251       C  0.98654679  0.37386443  0.44939375     0.36100
C1252       C  0.97065866  0.36657304  0.47343795    -0.06080
C1253       C  0.98489472  0.35600625  0.49689907    -0.33050
C1254       C  0.01388779  0.35073437  0.49590447     0.36010
H1255       H  0.02714617  0.37322420  0.42928605     0.16380
O1256       O  0.97346646  0.38386991  0.42591671    -0.60540
H1257       H  0.97324610  0.35021388  0.51559139     0.16390
O1258       O  0.02628244  0.33769570  0.51831764    -0.60640
H1259       H  0.03456668  0.35330241  0.52933553     0.43390
H1260       H  0.97300411  0.40473823  0.42810511     0.43340
C1261       C  0.07148731  0.21488223  0.35421797    -0.05720
C1262       C  0.08009036  0.24056749  0.34201098    -0.33150
C1263       C  0.10261224  0.25523168  0.35377266     0.36100
C1264       C  0.11454487  0.24439053  0.37852918    -0.06080
C1265       C  0.11162559  0.21550091  0.38466353    -0.33050
C1266       C  0.08948522  0.20060094  0.37279711     0.36010
H1267       H  0.06712398  0.25109542  0.32665012     0.16380
O1268       O  0.10849777  0.28254912  0.34518497    -0.60540
H1269       H  0.12187276  0.20641540  0.40277039     0.16390
O1270       O  0.08248148  0.17426627  0.38333244    -0.60640
H1271       H  0.08711985  0.16086114  0.36823342     0.43390
H1272       H  0.09246504  0.29411434  0.35152440     0.43340
C1273       C  0.94412798  0.24773963  0.35805311    -0.05720
C1274       C  0.91664242  0.23770162  0.36173468    -0.33150
C1275       C  0.89873373  0.25104044  0.38045726     0.36100
C1276       C  0.90834937  0.27513507  0.39477622    -0.06080
C1277       C  0.93409160  0.28779864  0.38686128    -0.33050
C1278       C  0.95201826  0.27413153  0.36857681     0.36010
H1279       H  0.91045442  0.21733318  0.35337144     0.16380
O1280       O  0.87274925  0.23941837  0.38581182    -0.60540
H1281       H  0.94161640  0.30691978  0.39677276     0.16390
O1282       O  0.97878353  0.28434966  0.36472847    -0.60640
H1283       H  0.97846065  0.29454699  0.34650676     0.43390
H1284       H  0.87607998  0.22307618  0.39855559     0.43340
C1285       C  0.08576483  0.25419110  0.50749268    -0.05720
C1286       C  0.07210768  0.27455444  0.52374421    -0.33150
C1287       C  0.05277050  0.26620861  0.54438766     0.36100
C1288       C  0.04739798  0.23728536  0.54901064    -0.06080
C1289       C  0.06350286  0.21701382  0.53503850    -0.33050
C1290       C  0.08257841  0.22534500  0.51416140     0.36010
H1291       H  0.07448820  0.29690455  0.51865997     0.16380
O1292       O  0.03705578  0.28626144  0.55760341    -0.60540
H1293       H  0.05927829  0.19460238  0.53839488     0.16390
O1294       O  0.09566449  0.20517242  0.49851309    -0.60640
H1295       H  0.11418910  0.20257345  0.50738224     0.43390
H1296       H  0.04723334  0.29034749  0.57510653     0.43340
C1297       C  0.89891630  0.27616989  0.52689205    -0.05720
C1298       C  0.88512848  0.25456270  0.54227597    -0.33150
C1299       C  0.89720147  0.24349970  0.56649298     0.36100
C1300       C  0.92387399  0.25322024  0.57450232    -0.06080
C1301       C  0.93404402  0.27884969  0.56329756    -0.33050
C1302       C  0.92194086  0.29020474  0.53920664     0.36010
H1303       H  0.86612751  0.24474937  0.53456703     0.16380
O1304       O  0.88554552  0.21985566  0.57913761    -0.60540
H1305       H  0.95412939  0.28719870  0.56995987     0.16390
O1306       O  0.93422600  0.31350871  0.52674430    -0.60640
H1307       H  0.92565026  0.33000767  0.53603749     0.43390
H1308       H  0.88951204  0.20387490  0.56646334     0.43340
C1309       C  0.00468056  0.12988966  0.49918977    -0.05720
C1310       C  0.98091204  0.13277972  0.48217519    -0.33150
C1311       C  0.98250196  0.12964042  0.45293097     0.36100
C1312       C  0.00817564  0.12325190  0.43972967    -0.06080
C1313       C  0.03152734  0.11830010  0.45697142    -0.33050
C1314       C  0.02987156  0.12133837  0.48634920     0.36010
H1315       H  0.96150572  0.14016170  0.49129708     0.16380
O1316       O  0.95948158  0.13602215  0.43711922    -0.60540
H1317       H  0.05178232  0.11458995  0.44742795     0.16390
O1318       O  0.05379924  0.11908674  0.50184272    -0.60640
H1319       H  0.05351439  0.09938567  0.50930778     0.43390
H1320       H  0.96018398  0.15690205  0.43438071     0.43340
C1321       C  0.26586716  0.21595459  0.46092551    -0.05720
C1322       C  0.23765353  0.20749443  0.45845986    -0.33150
C1323       C  0.21610459  0.22724674  0.45571119     0.36100
C1324       C  0.22203901  0.25672534  0.45573382    -0.06080
C1325       C  0.25033787  0.26534581  0.45755792    -0.33050
C1326       C  0.27207776  0.24535590  0.45995864     0.36010
H1327       H  0.23199716  0.18519293  0.45864333     0.16380
O1328       O  0.18915888  0.21719240  0.45345735    -0.60540
H1329       H  0.25569158  0.28771122  0.45759811     0.16390
O1330       O  0.29916599  0.25494552  0.46218295    -0.60640
H1331       H  0.30586825  0.25761587  0.44266931     0.43390
H1332       H  0.18602190  0.21509350  0.43312711     0.43340
C1333       C  0.37225264  0.96327711  0.46100481    -0.05720
C1334       C  0.36057332  0.97844686  0.43859842    -0.33150
C1335       C  0.35835209  0.00807203  0.43907315     0.36100
C1336       C  0.36824875  0.02360683  0.46206811    -0.06080
C1337       C  0.38247833  0.00884661  0.48331860    -0.33050
C1338       C  0.38432968  0.97886079  0.48297334     0.36010
H1339       H  0.35028533  0.96701943  0.42197391     0.16380
O1340       O  0.34334260  0.02133971  0.41845722    -0.60540
H1341       H  0.38974605  0.02018459  0.50146916     0.16390
O1342       O  0.39583228  0.96487867  0.50532202    -0.60640
H1343       H  0.38037265  0.96261606  0.51913412     0.43390
H1344       H  0.35758481  0.02893029  0.40510783     0.43340
C1345       C  0.23563192  0.07214585  0.34934038    -0.05720
C1346       C  0.21786059  0.08133645  0.37083515    -0.33150
C1347       C  0.22720076  0.10188929  0.38934717     0.36100
C1348       C  0.25464362  0.11232503  0.38631923    -0.06080
C1349       C  0.26863897  0.10905596  0.36063623    -0.33050
C1350       C  0.25975500  0.08788700  0.34246162     0.36010
H1351       H  0.19874042  0.06967516  0.37576511     0.16380
O1352       O  0.21254158  0.10599236  0.41367767    -0.60540
H1353       H  0.28950225  0.11795119  0.35775309     0.16390
O1354       O  0.27679526  0.07992556  0.32080223    -0.60640
H1355       H  0.29061309  0.06683339  0.32921169     0.43390
H1356       H  0.20366444  0.12477501  0.41132983     0.43340
C1357       C  0.22639762  0.93433588  0.36921209    -0.05720
C1358       C  0.21176465  0.92065579  0.39131072    -0.33150
C1359       C  0.22244886  0.89624164  0.40398807     0.36100
C1360       C  0.24811256  0.88551576  0.39467788    -0.06080
C1361       C  0.25870940  0.89501368  0.36863520    -0.33050
C1362       C  0.24848553  0.91992628  0.35621073     0.36010
H1363       H  0.19356859  0.93042567  0.40066865     0.16380
O1364       O  0.21058555  0.88625636  0.42843781    -0.60540
H1365       H  0.27823371  0.88652217  0.36082867     0.16390
O1366       O  0.26209080  0.93140570  0.33336212    -0.60640
H1367       H  0.27775132  0.94282273  0.34102276     0.43390
H1368       H  0.21730295  0.89920912  0.44319401     0.43340
C1369       C  0.10018778  0.02733087  0.31311920    -0.05720
C1370       C  0.09722695  0.04624270  0.29051138    -0.33150
C1371       C  0.07652899  0.06701900  0.29086931     0.36100
C1372       C  0.05852639  0.06926182  0.31419958    -0.06080
C1373       C  0.06087010  0.04996746  0.33639511    -0.33050
C1374       C  0.08128380  0.02904220  0.33600459     0.36010
H1375       H  0.11143011  0.04546660  0.27280082     0.16380
O1376       O  0.07534636  0.08623276  0.26918387    -0.60540
H1377       H  0.04692968  0.05125438  0.35429299     0.16390
O1378       O  0.08222721  0.01019833  0.35803573    -0.60640
H1379       H  0.09253887  0.02024024  0.37294260     0.43390
H1380       H  0.06409932  0.07675142  0.25460370     0.43340
C1381       C  0.24417415  0.03376930  0.54835828    -0.05720
C1382       C  0.27269474  0.04072859  0.54810486    -0.33150
C1383       C  0.28268561  0.06258910  0.53059273     0.36100
C1384       C  0.26407491  0.07689087  0.51265642    -0.06080
C1385       C  0.23528045  0.07186914  0.51512033    -0.33050
C1386       C  0.22520620  0.05075201  0.53334398     0.36010
H1387       H  0.28736532  0.02794111  0.55981272     0.16380
O1388       O  0.31101593  0.06741961  0.52858856    -0.60540
H1389       H  0.22085862  0.08266808  0.50132815     0.16390
O1390       O  0.19698911  0.04506246  0.53432519    -0.60640
H1391       H  0.19011418  0.05445477  0.55144061     0.43390
H1392       H  0.31455065  0.08460374  0.53981240     0.43340
C1393       C  0.26138058  0.90857323  0.57518771    -0.05720
C1394       C  0.25229245  0.88184918  0.56576361    -0.33150
C1395       C  0.26109107  0.87249457  0.53949481     0.36100
C1396       C  0.28044104  0.88915747  0.52421916    -0.06080
C1397       C  0.29501189  0.91103364  0.53778573    -0.33050
C1398       C  0.28634706  0.91995491  0.56406860     0.36010
H1399       H  0.23398209  0.87185872  0.57526671     0.16380
O1400       O  0.24787222  0.84979276  0.52754200    -0.60540
H1401       H  0.31156636  0.92277104  0.52703318     0.16390
O1402       O  0.29747064  0.94454187  0.57450084    -0.60640
H1403       H  0.31027285  0.93833732  0.58954620     0.43390
H1404       H  0.25954790  0.83320769  0.53241588     0.43340
C1405       C  0.06344180  0.09351893  0.61917596    -0.05720
C1406       C  0.08716771  0.09663997  0.60201623    -0.33150
C1407       C  0.10733809  0.07571647  0.60114063     0.36100
C1408       C  0.10407662  0.05107366  0.61770961    -0.06080
C1409       C  0.08064612  0.04801606  0.63543614    -0.33050
C1410       C  0.06016815  0.06907145  0.63609602     0.36010
H1411       H  0.09025362  0.11559208  0.58928684     0.16380
O1412       O  0.13085918  0.08014206  0.58494930    -0.60540
H1413       H  0.07795280  0.02908723  0.64825814     0.16390
O1414       O  0.03689998  0.06527719  0.65273812    -0.60640
H1415       H  0.02264062  0.05645663  0.64052656     0.43390
H1416       H  0.12511654  0.07551298  0.56564890     0.43340
C1417       C  0.13828671  0.98879785  0.49750849    -0.05720
C1418       C  0.13473409  0.01497389  0.48374823    -0.33150
C1419       C  0.13449313  0.01694522  0.45430364     0.36100
C1420       C  0.13820103  0.99253871  0.43773705    -0.06080
C1421       C  0.13840353  0.96605026  0.45153513    -0.33050
C1422       C  0.13863151  0.96410759  0.48102184     0.36010
H1423       H  0.13511905  0.03431885  0.49572675     0.16380
O1424       O  0.13388239  0.04330082  0.44193527    -0.60540
H1425       H  0.14180567  0.94701455  0.43958284     0.16390
O1426       O  0.14305272  0.93819527  0.49341021    -0.60640
H1427       H  0.12416447  0.93118309  0.49901101     0.43390
H1428       H  0.11405991  0.04608876  0.43658404     0.43340
C1429       C  0.84211911  0.40655358  0.42094855    -0.05720
C1430       C  0.82810386  0.39806582  0.39671239    -0.33150
C1431       C  0.82285040  0.41798346  0.37536042     0.36100
C1432       C  0.83156444  0.44634519  0.37865692    -0.06080
C1433       C  0.84347048  0.45492568  0.40378902    -0.33050
C1434       C  0.84890519  0.43532141  0.42475783     0.36010
H1435       H  0.82257737  0.37597205  0.39380641     0.16380
O1436       O  0.81146345  0.40917444  0.35069056    -0.60540
H1437       H  0.84981574  0.47683663  0.40667533     0.16390
O1438       O  0.86105144  0.44444802  0.44900900    -0.60640
H1439       H  0.88128091  0.44674819  0.44456290     0.43390
H1440       H  0.79098400  0.41170581  0.35298292     0.43340
C1441       C  0.14549720  0.42834916  0.36090583    -0.05720
C1442       C  0.12273940  0.41050587  0.36772955    -0.33150
C1443       C  0.12563142  0.38830117  0.38688948     0.36100
C1444       C  0.15163954  0.38360267  0.39984384    -0.06080
C1445       C  0.17517345  0.39941495  0.39081365    -0.33050
C1446       C  0.17222028  0.42184336  0.37148920     0.37930
H1447       H  0.10215268  0.41475251  0.35931498     0.16380
O1448       O  0.10239302  0.37245552  0.39416020    -0.60540
H1449       H  0.19537561  0.39592174  0.40036639     0.16390
O1450       O  0.19506795  0.43851772  0.36486429    -0.60640
H1451       H  0.19535042  0.45359977  0.37912201     0.43390
H1452       H  0.10200424  0.35659562  0.38075436     0.43340
C1453       C  0.96138771  0.48695276  0.32999232    -0.05720
C1454       C  0.97573582  0.50954691  0.34287167    -0.33150
C1455       C  0.00547551  0.50952713  0.34539561     0.36100
C1456       C  0.02147729  0.48680084  0.33473358    -0.06080
C1457       C  0.00660560  0.46369541  0.32356780    -0.33050
C1458       C  0.97735105  0.46364129  0.32114684     0.36010
H1459       H  0.96414610  0.52794136  0.34949013     0.16380
O1460       O  0.01865690  0.53270677  0.35647666    -0.60540
H1461       H  0.01782379  0.44565906  0.31562963     0.16390
O1462       O  0.96457230  0.44103808  0.30849884    -0.60640
H1463       H  0.95874643  0.42811923  0.32400781     0.43390
H1464       H  0.01939777  0.52876953  0.37684575     0.43340
C1465       C  0.06717530  0.40958370  0.24315004    -0.05720
C1466       C  0.06823184  0.40291731  0.21469960    -0.33150
C1467       C  0.04511494  0.39080998  0.20175441     0.36100
C1468       C  0.02041488  0.38559239  0.21717821    -0.06080
C1469       C  0.01981556  0.38995236  0.24590882    -0.33050
C1470       C  0.04332225  0.40121142  0.25916394     0.36010
H1471       H  0.08634002  0.40862259  0.20199470     0.16380
O1472       O  0.04588981  0.38667585  0.17343281    -0.60540
H1473       H  0.00090484  0.38543819  0.25786716     0.16390
O1474       O  0.04190412  0.40566979  0.28736692    -0.60640
H1475       H  0.04998768  0.38843202  0.29605434     0.43390
H1476       H  0.05455294  0.36783590  0.17103295     0.43340
C1477       C  0.85872297  0.38993899  0.24315092    -0.05720
C1478       C  0.87493135  0.36656361  0.25138059    -0.33150
C1479       C  0.89242164  0.35366234  0.23188661     0.36100
C1480       C  0.89232431  0.36369059  0.20413499    -0.06080
C1481       C  0.86995194  0.38058695  0.19509301    -0.33050
C1482       C  0.85274729  0.39367708  0.21466950     0.36010
H1483       H  0.87867206  0.36258061  0.27337959     0.16380
O1484       O  0.91319714  0.33613338  0.24122334    -0.60540
H1485       H  0.86884487  0.38744010  0.17344103     0.16390
O1486       O  0.83546939  0.41501623  0.20588768    -0.60640
H1487       H  0.81624548  0.40700247  0.20756646     0.43390
H1488       H  0.90617633  0.31666083  0.23770442     0.43340
C1489       C  0.98229803  0.25630805  0.19837082    -0.05720
C1490       C  0.97653974  0.22754422  0.19277147    -0.33150
C1491       C  0.97930063  0.20631383  0.21382714     0.36100
C1492       C  0.98842725  0.21354756  0.24095068    -0.06080
C1493       C  0.99453166  0.24228875  0.24602467    -0.33050
C1494       C  0.99177684  0.26321798  0.22538565     0.36010
H1495       H  0.96953835  0.22153296  0.17218779     0.16380
O1496       O  0.97326477  0.17867534  0.20750028    -0.60540
H1497       H  0.00188220  0.24892570  0.26630241     0.16390
O1498       O  0.99904852  0.29056034  0.23195041    -0.60640
H1499       H  0.01905698  0.29259787  0.22649114     0.43390
H1500       H  0.95292490  0.17633598  0.21132880     0.43340
C1501       C  0.07621050  0.52860332  0.23709205    -0.05720
C1502       C  0.06012126  0.54416761  0.25608675    -0.33150
C1503       C  0.04190807  0.56504892  0.24663394     0.36100
C1504       C  0.03909997  0.56991787  0.21778632    -0.06080
C1505       C  0.05618084  0.55530597  0.19890821    -0.33050
C1506       C  0.07494685  0.53499077  0.20840824     0.36010
H1507       H  0.06122970  0.53970003  0.27831194     0.16380
O1508       O  0.02545374  0.57892682  0.26556096    -0.60540
H1509       H  0.05441441  0.55910325  0.17661836     0.16390
O1510       O  0.09030223  0.52004815  0.18937218    -0.60640
H1511       H  0.10718463  0.53191628  0.18551415     0.43390
H1512       H  0.03710483  0.59507343  0.27198510     0.43340
C1513       C  0.91954090  0.56563385  0.21005655    -0.05720
C1514       C  0.91200782  0.56450944  0.23830974    -0.33150
C1515       C  0.89771960  0.54089565  0.24905107     0.36100
C1516       C  0.89104497  0.51817580  0.23141033    -0.06080
C1517       C  0.89593945  0.52027755  0.20287063    -0.33050
C1518       C  0.90938304  0.54425603  0.19187656     0.36010
H1519       H  0.91875567  0.58092190  0.25248072     0.16380
O1520       O  0.89161539  0.53941438  0.27710048    -0.60540
H1521       H  0.89015456  0.50300791  0.18926778     0.16390
O1522       O  0.91408521  0.54553059  0.16359672    -0.60640
H1523       H  0.89611370  0.55182699  0.15544629     0.43390
H1524       H  0.90993006  0.53804193  0.28664708     0.43340
C1525       C  0.99380158  0.51873357  0.11480560    -0.05720
C1526       C  0.97208737  0.50354485  0.12838926    -0.33150
C1527       C  0.97134720  0.47390531  0.12911279     0.36100
C1528       C  0.99265553  0.45800840  0.11625917    -0.06080
C1529       C  0.01363161  0.47285061  0.10105265    -0.33050
C1530       C  0.01417787  0.50299411  0.10007738     0.36010
H1531       H  0.95581825  0.51472490  0.13947961     0.16380
O1532       O  0.95035267  0.46056179  0.14411699    -0.60540
H1533       H  0.03049059  0.46122723  0.09137180     0.16390
O1534       O  0.03584670  0.51667916  0.08648133    -0.60640
H1535       H  0.02945261  0.51906041  0.06694063     0.43390
H1536       H  0.93577962  0.45585408  0.13021490     0.43340
C1537       C  0.26363731  0.48264616  0.20036077    -0.05720
C1538       C  0.23730449  0.47164331  0.19316437    -0.33150
C1539       C  0.21494675  0.47095457  0.21208089     0.36100
C1540       C  0.21780265  0.48201340  0.23930889    -0.06080
C1541       C  0.24462778  0.49142919  0.24748184    -0.33050
C1542       C  0.26749452  0.49168314  0.22823830     0.36010
H1543       H  0.23370280  0.46379953  0.17229395     0.16380
O1544       O  0.18977975  0.46019827  0.20313162    -0.60540
H1545       H  0.24757900  0.49984145  0.26821043     0.16390
O1546       O  0.29306626  0.50181533  0.23660289    -0.60640
H1547       H  0.29259815  0.52251197  0.23278409     0.43390
H1548       H  0.18937173  0.44017922  0.20969233     0.43340
C1549       C  0.36735263  0.48290427  0.00405013    -0.05720
C1550       C  0.37121238  0.45804515  0.98847620    -0.33150
C1551       C  0.36952087  0.45816119  0.95903554     0.36100
C1552       C  0.36400651  0.48343834  0.94404534    -0.06080
C1553       C  0.36364533  0.50885907  0.95926302    -0.33050
C1554       C  0.36512547  0.50871994  0.98887316     0.36010
H1555       H  0.37220727  0.43780330  0.99934850     0.16380
O1556       O  0.36971240  0.43277879  0.94538982    -0.60540
H1557       H  0.35877507  0.52854100  0.94853637     0.16390
O1558       O  0.36073272  0.53352796  0.00284780    -0.60640
H1559       H  0.34008454  0.53544366  0.00411723     0.43390
H1560       H  0.38931507  0.43050604  0.93887596     0.43340
C1561       C  0.24302144  0.57717451  0.02428669    -0.05720
C1562       C  0.22635544  0.56033686  0.04236251    -0.33150
C1563       C  0.23856447  0.54332532  0.06300961     0.36100
C1564       C  0.26788620  0.54253193  0.06521644    -0.06080
C1565       C  0.28424488  0.56190524  0.04927900    -0.33050
C1566       C  0.27191270  0.57937506  0.02899186     0.36010
H1567       H  0.20397625  0.55862263  0.03894814     0.16380
O1568       O  0.22203761  0.52440026  0.07774790    -0.60540
H1569       H  0.30689573  0.56132515  0.05053682     0.16390
O1570       O  0.28859635  0.59576682  0.01172197    -0.60640
H1571       H  0.28819076  0.61499344  0.01985723     0.43390
H1572       H  0.21777540  0.53393161  0.09560112     0.43340
C1573       C  0.25113478  0.59785261  0.89705192    -0.05720
C1574       C  0.27859386  0.59094581  0.90415464    -0.33150
C1575       C  0.29090555  0.56722315  0.89227316     0.36100
C1576       C  0.27562573  0.55108218  0.87279075    -0.06080
C1577       C  0.25183919  0.56286068  0.86046534    -0.33050
C1578       C  0.23964230  0.58670751  0.87239967     0.36010
H1579       H  0.28818304  0.60016266  0.92243602     0.16380
O1580       O  0.31590820  0.55783283  0.90266470    -0.60540
H1581       H  0.24063387  0.55162806  0.84432029     0.16390
O1582       O  0.21385202  0.59548330  0.86337773    -0.60640
H1583       H  0.20029468  0.58071085  0.86988310     0.43390
H1584       H  0.33002272  0.56299231  0.88815877     0.43340
C1585       C  0.05921366  0.66020168  0.08300843    -0.05720
C1586       C  0.05763261  0.64139406  0.06040638    -0.33150
C1587       C  0.07958574  0.63860781  0.04179117     0.36100
C1588       C  0.10366552  0.65532285  0.04475999    -0.06080
C1589       C  0.10548082  0.67481527  0.06674650    -0.33050
C1590       C  0.08342437  0.67703959  0.08620645     0.36010
H1591       H  0.03942105  0.62794973  0.05723635     0.16380
O1592       O  0.07693709  0.61997971  0.02014209    -0.60540
H1593       H  0.12415145  0.68778593  0.06910583     0.16390
O1594       O  0.08581700  0.69537465  0.10807378    -0.60640
H1595       H  0.07778942  0.71344574  0.10119890     0.43390
H1596       H  0.08144205  0.60111029  0.02819447     0.43340
C1597       C  0.25721966  0.41135050  0.08531423    -0.05720
C1598       C  0.23069061  0.39936736  0.08965147    -0.33150
C1599       C  0.22087031  0.37906249  0.07109958     0.36100
C1600       C  0.23755913  0.37214334  0.04783731    -0.06080
C1601       C  0.26582893  0.37977226  0.04706621    -0.33050
C1602       C  0.27589495  0.39933658  0.06601813     0.36010
H1603       H  0.21642608  0.40832632  0.10479874     0.16380
O1604       O  0.19321855  0.37094883  0.07241181    -0.60540
H1605       H  0.27880759  0.37414683  0.02934699     0.16390
O1606       O  0.30247239  0.41006959  0.06242070    -0.60640
H1607       H  0.31449252  0.39788375  0.07423811     0.43390
H1608       H  0.19321413  0.35197225  0.08153892     0.43340
C1609       C  0.21749245  0.39472249  0.91705763    -0.05720
C1610       C  0.24483412  0.38823908  0.90882867    -0.33150
C1611       C  0.25627274  0.40102654  0.88476623     0.36100
C1612       C  0.24001649  0.42010039  0.86897891    -0.06080
C1613       C  0.21138262  0.42230819  0.87457774    -0.33050
C1614       C  0.20000505  0.40968896  0.89860999     0.36010
H1615       H  0.25830085  0.37626747  0.92265711     0.16380
O1616       O  0.28441415  0.39841702  0.87936121    -0.60540
H1617       H  0.19877468  0.43705298  0.86265869     0.16390
O1618       O  0.17262849  0.41483879  0.90558644    -0.60640
H1619       H  0.16146476  0.40184258  0.89382124     0.43390
H1620       H  0.29389754  0.41159056  0.89233929     0.43340
C1621       C  0.09342291  0.33937048  0.01905148    -0.05720
C1622       C  0.09889061  0.35546277  0.04284830    -0.33150
C1623       C  0.07974298  0.35566521  0.06509593     0.36100
C1624       C  0.05465050  0.33977013  0.06346768    -0.06080
C1625       C  0.04940042  0.32363520  0.03951249    -0.33050
C1626       C  0.06861677  0.32334714  0.01743081     0.36010
H1627       H  0.11805046  0.36785771  0.04419763     0.16380
O1628       O  0.08621967  0.37056162  0.08866044    -0.60540
H1629       H  0.03009935  0.31153870  0.03766504     0.16390
O1630       O  0.06232225  0.30857612  0.99374003    -0.60640
H1631       H  0.06969850  0.28926026  0.99706189     0.43390
H1632       H  0.08119445  0.39047230  0.08430869     0.43340
C1633       C  0.12480813  0.46849786  0.98034037    -0.05720
C1634       C  0.12407006  0.48517467  0.95580929    -0.33150
C1635       C  0.12533690  0.51510569  0.95698047     0.36100
C1636       C  0.12736528  0.52899160  0.98292314    -0.06080
C1637       C  0.12431862  0.51246794  0.00733965    -0.33050
C1638       C  0.12302005  0.48261521  0.00621167     0.36010
H1639       H  0.12606344  0.47507490  0.93569755     0.16380
O1640       O  0.12864402  0.53033159  0.93258943    -0.60540
H1641       H  0.12623345  0.52246016  0.02750769     0.16390
O1642       O  0.12304580  0.46721979  0.03072285    -0.60640
H1643       H  0.14245540  0.46867017  0.03788279     0.43390
H1644       H  0.10970642  0.53750463  0.92817868     0.43340
C1645       C  0.43373686  0.39825354  0.81914359    -0.05720
C1646       C  0.40837319  0.39108721  0.80609537    -0.33150
C1647       C  0.38671898  0.41124169  0.80402848     0.36100
C1648       C  0.39046580  0.43846481  0.81547200    -0.06080
C1649       C  0.41644426  0.44581625  0.82671951    -0.33050
C1650       C  0.43783664  0.42619331  0.82858897     0.36010
H1651       H  0.40489140  0.36971143  0.79877909     0.16380
O1652       O  0.36153740  0.40355640  0.79265568    -0.60540
H1653       H  0.42004788  0.46691462  0.83480337     0.16390
O1654       O  0.46284126  0.43448271  0.84011867    -0.60640
H1655       H  0.45941081  0.43486028  0.86057147     0.43390
H1656       H  0.36346213  0.40802965  0.77244252     0.43340
C1657       C  0.43946907  0.39641831  0.13540076    -0.05720
C1658       C  0.44463036  0.42543628  0.13915395    -0.33150
C1659       C  0.42270199  0.44486922  0.13893611     0.36100
C1660       C  0.39492292  0.43544694  0.13536329    -0.06080
C1661       C  0.38940057  0.40624520  0.13315075    -0.33050
C1662       C  0.41157104  0.38671935  0.13298338     0.36010
H1663       H  0.46600386  0.43329833  0.14036026     0.16380
O1664       O  0.42871433  0.47325066  0.14128033    -0.60540
H1665       H  0.36811988  0.39876877  0.13011116     0.16390
O1666       O  0.40596731  0.35865589  0.12811585    -0.60640
H1667       H  0.40539916  0.34948609  0.14685591     0.43390
H1668       H  0.43251077  0.48007232  0.12193282     0.43340
C1669       C  0.48776733  0.36032803  0.94618452    -0.05720
C1670       C  0.48527405  0.33511385  0.96207976    -0.33150
C1671       C  0.48478370  0.33527817  0.99138790     0.36100
C1672       C  0.48650806  0.36098054  0.00614912    -0.06080
C1673       C  0.48949323  0.38632315  0.99049329    -0.33050
C1674       C  0.48984104  0.38618443  0.96088475     0.36010
H1675       H  0.48412764  0.31481697  0.95176921     0.16380
O1676       O  0.48369043  0.30982429  0.00545391    -0.60540
H1677       H  0.49111433  0.40635689  0.00121147     0.16390
O1678       O  0.49201707  0.41150417  0.94665306    -0.60640
H1679       H  0.47243199  0.41766303  0.94376224     0.43390
H1680       H  0.50356877  0.30466343  0.00823952     0.43340
C1681       C  0.35730093  0.24731390  0.04715506    -0.05720
C1682       C  0.36341996  0.23779111  0.07414583    -0.33150
C1683       C  0.38471312  0.25110748  0.08906594     0.36100
C1684       C  0.39860974  0.27499448  0.07721952    -0.06080
C1685       C  0.38724126  0.28814867  0.05345631    -0.33050
C1686       C  0.36620869  0.27451075  0.03854796     0.36010
H1687       H  0.35579345  0.21722587  0.08134844     0.16380
O1688       O  0.39318905  0.23935901  0.11394682    -0.60540
H1689       H  0.39666853  0.30725434  0.04462389     0.16390
O1690       O  0.35918499  0.28480617  0.01264519    -0.60640
H1691       H  0.34024664  0.29290641  0.01505476     0.43390
H1692       H  0.40403571  0.22231565  0.10886700     0.43340
C1693       C  0.39459058  0.22550474  0.93023166    -0.05720
C1694       C  0.38977799  0.25444142  0.92642732    -0.33150
C1695       C  0.40474107  0.26967970  0.90608146     0.36100
C1696       C  0.42476755  0.25573690  0.88937985    -0.06080
C1697       C  0.42686578  0.22615483  0.89107137    -0.33050
C1698       C  0.41204692  0.21102865  0.91155275     0.36010
H1699       H  0.37606717  0.26563075  0.94057275     0.16380
O1700       O  0.40082937  0.29839181  0.90390988    -0.60540
H1701       H  0.44146268  0.21489684  0.87791041     0.16390
O1702       O  0.41554649  0.18225972  0.91395204    -0.60640
H1703       H  0.43392902  0.17984306  0.92315285     0.43390
H1704       H  0.38701388  0.30086168  0.88872295     0.43340
C1705       C  0.21641047  0.26657437  0.97344359    -0.05720
C1706       C  0.21033165  0.23964512  0.96252770    -0.33150
C1707       C  0.23090089  0.21831729  0.96186063     0.36100
C1708       C  0.25808006  0.22368410  0.97233522    -0.06080
C1709       C  0.26351274  0.25018207  0.98430271    -0.33050
C1710       C  0.24325030  0.27122816  0.98510039     0.36010
H1711       H  0.18994247  0.23539253  0.95362596     0.16380
O1712       O  0.22429893  0.19261870  0.95043040    -0.60540
H1713       H  0.28388454  0.25496902  0.99302869     0.16390
O1714       O  0.25037555  0.29662826  0.99695738    -0.60640
H1715       H  0.24467890  0.29471386  0.01685214     0.43390
H1716       H  0.22838106  0.19489824  0.93018841     0.43340
C1717       C  0.55344515  0.24957304  0.00613726    -0.05720
C1718       C  0.56547893  0.26251884  0.02957367    -0.33150
C1719       C  0.54902474  0.26919435  0.05283686     0.36100
C1720       C  0.52025029  0.26269587  0.05298205    -0.06080
C1721       C  0.50819999  0.24955112  0.02998297    -0.33050
C1722       C  0.52447965  0.24282163  0.00670905     0.36010
H1723       H  0.58766341  0.26758420  0.02984596     0.16380
O1724       O  0.56094668  0.28322976  0.07476024    -0.60540
H1725       H  0.48585754  0.24520465  0.02973688     0.16390
O1726       O  0.51176706  0.22966989  0.98467718    -0.60640
H1727       H  0.50700219  0.21026355  0.99150760     0.43390
H1728       H  0.56659163  0.26813561  0.08810816     0.43340
C1729       C  0.60442962  0.26776315  0.89570600    -0.05720
C1730       C  0.59958359  0.26058930  0.86785563    -0.33150
C1731       C  0.57330525  0.26590657  0.85637375     0.36100
C1732       C  0.55337773  0.28130101  0.87196116    -0.06080
C1733       C  0.56246355  0.29561995  0.89591169    -0.33050
C1734       C  0.58882892  0.28999142  0.90704939     0.36010
H1735       H  0.61294323  0.24526842  0.85778262     0.16380
O1736       O  0.56684369  0.25436345  0.83102082    -0.60540
H1737       H  0.54854693  0.30958288  0.90709308     0.16390
O1738       O  0.59542866  0.30055952  0.93276349    -0.60640
H1739       H  0.60998680  0.31527300  0.92900426     0.43390
H1740       H  0.56146747  0.23437900  0.83518773     0.43340
C1741       C  0.51460410  0.13988878  0.97176660    -0.05720
C1742       C  0.50349150  0.13191378  0.99795292    -0.33150
C1743       C  0.47454744  0.12602024  0.00137285     0.36100
C1744       C  0.45590435  0.12799217  0.97842995    -0.06080
C1745       C  0.46784187  0.13203398  0.95174375    -0.33050
C1746       C  0.49667410  0.13826448  0.94837168     0.36010
H1747       H  0.51664835  0.13294685  0.01626677     0.16380
O1748       O  0.46418638  0.12151767  0.02784666    -0.60540
H1749       H  0.45435486  0.13370974  0.93371780     0.16390
O1750       O  0.50662465  0.14542435  0.92226663    -0.60640
H1751       H  0.51438767  0.12764183  0.91471575     0.43390
H1752       H  0.46292664  0.10061781  0.03006950     0.43340
C1753       C  0.44386688  0.83652989  0.36116068    -0.05720
C1754       C  0.42863527  0.86128710  0.36608062    -0.33150
C1755       C  0.40621288  0.86109879  0.38487960     0.36100
C1756       C  0.39893264  0.83590627  0.39946794    -0.06080
C1757       C  0.41236423  0.81058108  0.39248643    -0.33050
C1758       C  0.43479759  0.81075414  0.37358775     0.36010
H1759       H  0.43481226  0.88116347  0.35612921     0.16380
O1760       O  0.39259043  0.88601918  0.38991281    -0.60540
H1761       H  0.40693583  0.79091869  0.40322922     0.16390
O1762       O  0.44884376  0.78598899  0.36900007    -0.60640
H1763       H  0.46327423  0.78505776  0.38378462     0.43390
H1764       H  0.37558315  0.88532239  0.37815121     0.43340
C1765       C  0.43118097  0.15512860  0.36314151    -0.05720
C1766       C  0.42543942  0.18012487  0.37761592    -0.33150
C1767       C  0.40559006  0.18009577  0.39923734     0.36100
C1768       C  0.39122612  0.15479930  0.40646292    -0.06080
C1769       C  0.39534859  0.13048476  0.39040028    -0.33050
C1770       C  0.41505290  0.13056098  0.36877262     0.36010
H1771       H  0.43786427  0.19912244  0.37366412     0.16380
O1772       O  0.40261141  0.20398650  0.41498709    -0.60540
H1773       H  0.38405913  0.11100237  0.39538177     0.16390
O1774       O  0.41947190  0.10607491  0.35427938    -0.60640
H1775       H  0.40801671  0.10797179  0.33716867     0.43390
H1776       H  0.38864821  0.21563900  0.40493991     0.43340
C1777       C  0.49395169  0.26587666  0.19804231    -0.05720
C1778       C  0.50138767  0.27242530  0.22561656    -0.33150
C1779       C  0.50011289  0.25141835  0.24710112     0.36100
C1780       C  0.49159117  0.22316431  0.24118275    -0.06080
C1781       C  0.48297783  0.21727619  0.21395582    -0.33050
C1782       C  0.48390254  0.23800181  0.19279158     0.36010
H1783       H  0.50917634  0.29345672  0.23034433     0.16380
O1784       O  0.50865124  0.25844688  0.27342128    -0.60540
H1785       H  0.47554081  0.19621275  0.20878690     0.16390
O1786       O  0.47446342  0.23067194  0.16680574    -0.60640
H1787       H  0.48956581  0.21910448  0.15850340     0.43390
H1788       H  0.49185429  0.26646102  0.28258322     0.43340
C1789       C  0.49527918  0.96656676  0.34335884    -0.05720
C1790       C  0.47056691  0.98263405  0.34379697    -0.33150
C1791       C  0.47147983  0.01250002  0.34484672     0.36100
C1792       C  0.49739551  0.02710267  0.34528019    -0.06080
C1793       C  0.52191593  0.01095112  0.34787360    -0.33050
C1794       C  0.52095603  0.98100921  0.34744014     0.36010
H1795       H  0.45059934  0.97220354  0.34025285     0.16380
O1796       O  0.44704454  0.02732264  0.34207839    -0.60540
H1797       H  0.54214036  0.02158659  0.34745443     0.16390
O1798       O  0.54563804  0.96642314  0.34678483    -0.60640
H1799       H  0.54813670  0.95908328  0.36608802     0.43390
H1800       H  0.44373895  0.02873131  0.32167849     0.43340
C1801       C  0.42062771  0.10442046  0.22384065    -0.05720
C1802       C  0.39484796  0.09474135  0.23480860    -0.33150
C1803       C  0.38073451  0.07221827  0.22226278     0.36100
C1804       C  0.39162586  0.06072108  0.19754312    -0.06080
C1805       C  0.41390701  0.07497595  0.18366770    -0.33050
C1806       C  0.42834068  0.09694198  0.19667250     0.36010
H1807       H  0.38842669  0.10095540  0.25560128     0.16380
O1808       O  0.35760602  0.06048730  0.23526056    -0.60540
H1809       H  0.42204641  0.06732803  0.16399796     0.16390
O1810       O  0.45306002  0.10671445  0.18518967    -0.60640
H1811       H  0.44849697  0.12533077  0.17662949     0.43390
H1812       H  0.36505724  0.04823732  0.25041259     0.43340
C1813       C  0.41161158  0.92925335  0.19534230    -0.05720
C1814       C  0.43708516  0.92542033  0.18092210    -0.33150
C1815       C  0.45558022  0.90455179  0.18936962     0.36100
C1816       C  0.44855975  0.88715363  0.21230317    -0.06080
C1817       C  0.42141647  0.88763997  0.22356913    -0.33050
C1818       C  0.40285439  0.90873684  0.21529075     0.36010
H1819       H  0.44366144  0.93966313  0.16415056     0.16380
O1820       O  0.48161282  0.90309982  0.17707459    -0.60540
H1821       H  0.41585578  0.87413368  0.24126940     0.16390
O1822       O  0.37732468  0.91036062  0.22843479    -0.60640
H1823       H  0.36453067  0.89842778  0.21721002     0.43390
H1824       H  0.49210707  0.92002181  0.18356353     0.43340
C1825       C  0.31613035  0.04960083  0.05296010    -0.05720
C1826       C  0.31671807  0.07815011  0.06090428    -0.33150
C1827       C  0.31886871  0.09965913  0.04062121     0.36100
C1828       C  0.32001796  0.09250887  0.01225536    -0.06080
C1829       C  0.31679380  0.06428404  0.00424265    -0.33050
C1830       C  0.31459044  0.04282449  0.02442482     0.36010
H1831       H  0.31818029  0.08368891  0.08275212     0.16380
O1832       O  0.32143622  0.12738395  0.04866310    -0.60540
H1833       H  0.31700834  0.05882467  0.98231383     0.16390
O1834       O  0.31302923  0.01514307  0.01607504    -0.60640
H1835       H  0.29287291  0.00997589  0.01740801     0.43390
H1836       H  0.34125770  0.12971269  0.05436209     0.43340
C1837       C  0.23083593  0.98987111  0.23564021    -0.05720
C1838       C  0.22240937  0.99878321  0.20862164    -0.33150
C1839       C  0.24210144  0.00181934  0.18622222     0.36100
C1840       C  0.27064667  0.99553725  0.19046796    -0.06080
C1841       C  0.27835245  0.98503624  0.21693899    -0.33050
C1842       C  0.25918202  0.98221307  0.23904438     0.36010
H1843       H  0.20079907  0.00452635  0.20512229     0.16380
O1844       O  0.23341825  0.01204692  0.16084807    -0.60540
H1845       H  0.30000760  0.97972415  0.22096996     0.16390
O1846       O  0.26885595  0.97249171  0.26429109    -0.60640
H1847       H  0.26576134  0.95167609  0.26406519     0.43390
H1848       H  0.23518009  0.03295544  0.16211611     0.43340
C1849       C  0.58271258  0.04696639  0.21948592    -0.05720
C1850       C  0.58403679  0.05437401  0.24764098    -0.33150
C1851       C  0.56643764  0.07550529  0.25786348     0.36100
C1852       C  0.54748944  0.08909962  0.23971779    -0.06080
C1853       C  0.54945080  0.08475128  0.21106631    -0.33050
C1854       C  0.56712644  0.06388168  0.20082202     0.36010
H1855       H  0.59601612  0.04165154  0.26218240     0.16380
O1856       O  0.56465301  0.07943681  0.28615559    -0.60540
H1857       H  0.53483071  0.09492776  0.19701494     0.16390
O1858       O  0.56629599  0.05762713  0.17297195    -0.60640
H1859       H  0.57453946  0.07447556  0.16338125     0.43390
H1860       H  0.57520639  0.09724843  0.28960301     0.43340
C1861       C  0.61816505  0.91985030  0.24258774    -0.05720
C1862       C  0.61022235  0.92479373  0.27022717    -0.33150
C1863       C  0.58559919  0.91222452  0.28040314     0.36100
C1864       C  0.57068655  0.89345393  0.26315006    -0.06080
C1865       C  0.58402102  0.88220126  0.23966058    -0.33050
C1866       C  0.60862944  0.89500871  0.22966049     0.36010
H1867       H  0.61890327  0.94280266  0.28118200     0.16380
O1868       O  0.57453457  0.92092686  0.30537534    -0.60540
H1869       H  0.57346968  0.86666420  0.22685760     0.16390
O1870       O  0.61813759  0.88827087  0.20350360    -0.60640
H1871       H  0.63551303  0.87740388  0.20671884     0.43390
H1872       H  0.56775545  0.94045253  0.30187760     0.43340
C1873       C  0.62775840  0.07625523  0.09413240    -0.05720
C1874       C  0.64464309  0.07350813  0.07032353    -0.33150
C1875       C  0.64262684  0.09281033  0.04845712     0.36100
C1876       C  0.62345539  0.11514312  0.05035617    -0.06080
C1877       C  0.60532379  0.11696485  0.07327759    -0.33050
C1878       C  0.60733491  0.09754096  0.09523749     0.36010
H1879       H  0.65965996  0.05649905  0.06872506     0.16380
O1880       O  0.65923326  0.08959596  0.02518767    -0.60540
H1881       H  0.59057115  0.13420911  0.07477717     0.16390
O1882       O  0.59061336  0.10069359  0.11834202    -0.60640
H1883       H  0.57212868  0.09270554  0.11305122     0.43390
H1884       H  0.67815167  0.09629210  0.03068588     0.43340
C1885       C  0.46729839  0.99918521  0.10530626    -0.05720
C1886       C  0.48395309  0.02337880  0.11018542    -0.33150
C1887       C  0.51257180  0.02107875  0.11708814     0.36100
C1888       C  0.52498518  0.99414515  0.12033347    -0.06080
C1889       C  0.50859723  0.97005946  0.11407110    -0.33050
C1890       C  0.48026010  0.97245662  0.10628395     0.36010
H1891       H  0.47432377  0.04408252  0.11029627     0.16380
O1892       O  0.52725906  0.04516364  0.12372619    -0.60540
H1893       H  0.51738119  0.94911357  0.11670380     0.16390
O1894       O  0.46467140  0.94826253  0.10244329    -0.60640
H1895       H  0.46529459  0.94494309  0.08203945     0.43390
H1896       H  0.53613012  0.05163870  0.10595603     0.43340
C1897       C  0.60556231  0.85337334  0.42673359    -0.05720
C1898       C  0.60757489  0.87142452  0.40338712    -0.33150
C1899       C  0.58746054  0.87068107  0.38263888     0.36100
C1900       C  0.56463479  0.85157406  0.38494505    -0.06080
C1901       C  0.56244713  0.83344333  0.40834719    -0.33050
C1902       C  0.58268087  0.83438751  0.42934756     0.36010
H1903       H  0.62526213  0.88583147  0.40079287     0.16380
O1904       O  0.59125991  0.88761026  0.35937890    -0.60540
H1905       H  0.54496793  0.81872537  0.41044801     0.16390
O1906       O  0.57977917  0.81689922  0.45229866    -0.60640
H1907       H  0.57030121  0.82852168  0.46660164     0.43390
H1908       H  0.58464717  0.90662651  0.36489177     0.43340
C1909       C  0.58420810  0.15213534  0.43436545    -0.05720
C1910       C  0.57456446  0.17741418  0.42236054    -0.33150
C1911       C  0.55484929  0.17679553  0.40118538     0.36100
C1912       C  0.54446970  0.15050659  0.39188583    -0.06080
C1913       C  0.55215567  0.12542341  0.40576801    -0.33050
C1914       C  0.57204726  0.12607427  0.42685359     0.36010
H1915       H  0.58370922  0.19765731  0.42800276     0.16380
O1916       O  0.54794121  0.20177988  0.38811063    -0.60540
H1917       H  0.54364271  0.10510680  0.39949324     0.16390
O1918       O  0.57970660  0.10119837  0.43972351    -0.60640
H1919       H  0.59252082  0.09184833  0.42637280     0.43390
H1920       H  0.53246091  0.20962254  0.39946992     0.43340
C1921       C  0.72507010  0.24281262  0.47894972    -0.05720
C1922       C  0.72139251  0.26974604  0.49094103    -0.33150
C1923       C  0.74291418  0.29069817  0.48915405     0.36100
C1924       C  0.76802517  0.28494096  0.47466912    -0.06080
C1925       C  0.77010058  0.25911271  0.46051134    -0.33050
C1926       C  0.74931502  0.23825813  0.46272754     0.36010
H1927       H  0.70273696  0.27388150  0.50316313     0.16380
O1928       O  0.73988107  0.31577210  0.50296795    -0.60540
H1929       H  0.78909726  0.25416983  0.44908440     0.16390
O1930       O  0.75366862  0.21275184  0.44997053    -0.60640
H1931       H  0.74439369  0.21444371  0.43156853     0.43390
H1932       H  0.74672761  0.31199089  0.52214737     0.43340
C1933       C  0.64500242  0.97665048  0.48512760    -0.05720
C1934       C  0.63566557  0.99222658  0.46175710    -0.33150
C1935       C  0.63445510  0.02222624  0.46224951     0.36100
C1936       C  0.64256457  0.03714061  0.48634375    -0.06080
C1937       C  0.64959130  0.02130851  0.51028223    -0.33050
C1938       C  0.65086985  0.99156091  0.50981586     0.36010
H1939       H  0.63180574  0.98140342  0.44231167     0.16380
O1940       O  0.62761021  0.03683075  0.43836218    -0.60540
H1941       H  0.65683419  0.03220731  0.52872433     0.16390
O1942       O  0.66140795  0.97749808  0.53262194    -0.60640
H1943       H  0.64474652  0.97039725  0.54312307     0.43390
H1944       H  0.64543166  0.03909583  0.42776680     0.43340
C1945       C  0.73829462  0.11700683  0.43163641    -0.05720
C1946       C  0.76670893  0.11426460  0.42546997    -0.33150
C1947       C  0.77490044  0.09792094  0.40275184     0.36100
C1948       C  0.75437260  0.08385480  0.38686717    -0.06080
C1949       C  0.72613278  0.09024990  0.39055710    -0.33050
C1950       C  0.71798477  0.10715360  0.41277993     0.36010
H1951       H  0.78236243  0.12189238  0.43992439     0.16380
O1952       O  0.80282181  0.09255453  0.39851277    -0.60540
H1953       H  0.71025413  0.07919626  0.37867786     0.16390
O1954       O  0.68997110  0.10983231  0.41867415    -0.60640
H1955       H  0.68453132  0.12804690  0.40981317     0.43390
H1956       H  0.80869872  0.08077645  0.41469888     0.43340
C1957       C  0.77307756  0.94996044  0.39850375    -0.05720
C1958       C  0.74466937  0.94260392  0.39807888    -0.33150
C1959       C  0.73392539  0.92386274  0.41842411     0.36100
C1960       C  0.75190698  0.91267838  0.43893748    -0.06080
C1961       C  0.78085110  0.91564640  0.43571499    -0.33050
C1962       C  0.79160238  0.93364753  0.41484946     0.36010
H1963       H  0.73029134  0.95437241  0.38503221     0.16380
O1964       O  0.70551372  0.91925888  0.42029775    -0.60540
H1965       H  0.79484841  0.90667134  0.45111757     0.16390
O1966       O  0.81990322  0.93883240  0.41371887    -0.60640
H1967       H  0.82705790  0.92613991  0.39899732     0.43390
H1968       H  0.69741572  0.93757476  0.42607635     0.43340
C1969       C  0.94028248  0.09090351  0.32265296    -0.05720
C1970       C  0.91635270  0.09460041  0.30613925    -0.33150
C1971       C  0.89289168  0.07668301  0.30973658     0.36100
C1972       C  0.89329008  0.05482157  0.33011993    -0.06080
C1973       C  0.91720060  0.05144812  0.34660313    -0.33050
C1974       C  0.94045873  0.06904577  0.34301797     0.36010
H1975       H  0.91579204  0.11142005  0.29055137     0.16380
O1976       O  0.86956966  0.08114451  0.29376437    -0.60540
H1977       H  0.91837979  0.03440179  0.36191927     0.16390
O1978       O  0.96393975  0.06352716  0.35849064    -0.60640
H1979       H  0.96027164  0.07193190  0.37703626     0.43390
H1980       H  0.87362395  0.07195823  0.27567881     0.43340
C1981       C  0.71808432  0.00439740  0.22576740    -0.05720
C1982       C  0.71204711  0.99529863  0.25326625    -0.33150
C1983       C  0.73227538  0.99606046  0.27420653     0.36100
C1984       C  0.75962220  0.00630198  0.26835222    -0.06080
C1985       C  0.76617587  0.01455027  0.24067348    -0.33050
C1986       C  0.74569097  0.01382868  0.21953981     0.36010
H1987       H  0.69129713  0.98753814  0.25886089     0.16380
O1988       O  0.72489046  0.98656212  0.30045984    -0.60540
H1989       H  0.78707176  0.02216874  0.23548241     0.16390
O1990       O  0.75292887  0.02259416  0.19303469    -0.60640
H1991       H  0.74999127  0.04337945  0.19277649     0.43390
H1992       H  0.72970555  0.96615496  0.30081966     0.43340
C1993       C  0.76778994  0.08723500  0.59447289    -0.05720
C1994       C  0.74532441  0.10378848  0.60319843    -0.33150
C1995       C  0.73838604  0.12800959  0.58771873     0.36100
C1996       C  0.75302968  0.13394163  0.56262953    -0.06080
C1997       C  0.77955344  0.12235301  0.55890757    -0.33050
C1998       C  0.78642728  0.09787617  0.57385948     0.36010
H1999       H  0.73163566  0.09646871  0.61998818     0.16380
O2000       O  0.71334296  0.14095371  0.59300571    -0.60540
H2001       H  0.79184220  0.12799177  0.54050616     0.16390
O2002       O  0.81022475  0.08344894  0.56688356    -0.60640
H2003       H  0.80696548  0.07621734  0.54779376     0.43390
H2004       H  0.71841696  0.15887987  0.60240239     0.43340
C2005       C  0.78407526  0.94904066  0.59327577    -0.05720
C2006       C  0.75953225  0.93743735  0.60499299    -0.33150
C2007       C  0.74766515  0.91305018  0.59332974     0.36100
C2008       C  0.76004551  0.90135125  0.56928349    -0.06080
C2009       C  0.78786841  0.90838396  0.56287900    -0.33050
C2010       C  0.79996141  0.93248479  0.57463144     0.36010
H2011       H  0.74770287  0.94908512  0.62038058     0.16380
O2012       O  0.72133798  0.90437506  0.60167773    -0.60540
H2013       H  0.79811815  0.89885673  0.54508115     0.16390
O2014       O  0.82554777  0.94180727  0.56482761    -0.60640
H2015       H  0.83925470  0.93495229  0.57876265     0.43390
H2016       H  0.70824817  0.91830853  0.59340528     0.43340
C2017       C  0.90170280  0.06568876  0.63444859    -0.05720
C2018       C  0.90415014  0.08738298  0.65421439    -0.33150
C2019       C  0.92521464  0.10835044  0.65160248     0.36100
C2020       C  0.94446284  0.10772000  0.62904190    -0.06080
C2021       C  0.94129592  0.08658256  0.60894238    -0.33050
C2022       C  0.92056904  0.06578438  0.61146179     0.36010
H2023       H  0.88990982  0.08798230  0.67190057     0.16380
O2024       O  0.92694861  0.12900050  0.67143815    -0.60540
H2025       H  0.95554832  0.08545661  0.59129004     0.16390
O2026       O  0.91946317  0.04537875  0.59128580    -0.60640
H2027       H  0.93270908  0.03054281  0.59750204     0.43390
H2028       H  0.91531777  0.14474335  0.66422328     0.43340
C2029       C  0.86928517  0.00994705  0.45910883    -0.05720
C2030       C  0.87680991  0.03449977  0.47376877    -0.33150
C2031       C  0.87885861  0.03424349  0.50309427     0.36100
C2032       C  0.87293173  0.00924666  0.51868518    -0.06080
C2033       C  0.86932121  0.98389793  0.50383672    -0.33050
C2034       C  0.86736577  0.98412806  0.47433883     0.36010
H2035       H  0.87796204  0.05468264  0.46274762     0.16380
O2036       O  0.88231148  0.05952761  0.51654894    -0.60540
H2037       H  0.86413181  0.96450068  0.51515940     0.16390
O2038       O  0.85981289  0.95964992  0.46103245    -0.60640
H2039       H  0.83930143  0.95767671  0.46405065     0.43390
H2040       H  0.90232792  0.06011916  0.52193089     0.43340
C2041       C  0.85905042  0.59916042  0.42098809    -0.05720
C2042       C  0.88304532  0.58768309  0.40847376    -0.33150
C2043       C  0.88066342  0.56850905  0.38653960     0.36100
C2044       C  0.85392411  0.56056416  0.37681351    -0.06080
C2045       C  0.83004926  0.57204288  0.38936968    -0.33050
C2046       C  0.83234822  0.59098564  0.41124436     0.36010
H2047       H  0.90375015  0.59346968  0.41573859     0.16380
O2048       O  0.90451864  0.55694506  0.37555895    -0.60540
H2049       H  0.80927425  0.56644110  0.38214812     0.16390
O2050       O  0.80824030  0.60212136  0.42215208    -0.60640
H2051       H  0.80126069  0.58774829  0.43587164     0.43390
H2052       H  0.91137368  0.57092535  0.36140092     0.43340
C2053       C  0.79021746  0.74047701  0.49387400    -0.05720
C2054       C  0.79752141  0.76918019  0.49722317    -0.33150
C2055       C  0.77715085  0.79032732  0.49942840     0.36100
C2056       C  0.74818009  0.78349241  0.49792706    -0.06080
C2057       C  0.74074028  0.75467587  0.49509581    -0.33050
C2058       C  0.76130008  0.73336738  0.49325866     0.36010
H2059       H  0.81936985  0.77551429  0.49813674     0.16380
O2060       O  0.78613448  0.81782051  0.50248195    -0.60540
H2061       H  0.71885902  0.74857252  0.49380855     0.16390
O2062       O  0.75274522  0.70579104  0.48992967    -0.60640
H2063       H  0.74918527  0.69842240  0.50912542     0.43390
H2064       H  0.78740916  0.82060286  0.52293469     0.43340
C2065       C  0.19360147  0.58511780  0.40479790    -0.05720
C2066       C  0.19054994  0.59475631  0.37714001    -0.33150
C2067       C  0.18592896  0.57530496  0.35575024     0.36100
C2068       C  0.18514519  0.54613443  0.36218482    -0.06080
C2069       C  0.19360262  0.53673982  0.38871449    -0.33050
C2070       C  0.19782951  0.55611019  0.41007370     0.36010
H2071       H  0.18749786  0.61710812  0.37276834     0.16380
O2072       O  0.17810645  0.58504000  0.32985926    -0.60540
H2073       H  0.19344791  0.51427661  0.39378622     0.16390
O2074       O  0.20206966  0.54625543  0.43676375    -0.60640
H2075       H  0.22247153  0.54853540  0.43991754     0.43390
H2076       H  0.15766979  0.58842347  0.33132239     0.43340
C2077       C  0.27822703  0.76198860  0.46053331    -0.05720
C2078       C  0.25188644  0.76540798  0.47315673    -0.33150
C2079       C  0.23237285  0.74308989  0.47489183     0.36100
C2080       C  0.23820766  0.71626185  0.46330181    -0.06080
C2081       C  0.26513187  0.71200776  0.45211025    -0.33050
C2082       C  0.28515543  0.73449420  0.45095528     0.36010
H2083       H  0.24603728  0.78578991  0.48148760     0.16380
O2084       O  0.20659524  0.74838643  0.48647541    -0.60540
H2085       H  0.27012187  0.69187273  0.44275405     0.16390
O2086       O  0.31100072  0.72953515  0.43947677    -0.60640
H2087       H  0.30884794  0.73333667  0.41919638     0.43390
H2088       H  0.20766487  0.74110473  0.50594611     0.43340
C2089       C  0.98139342  0.63244511  0.48070538    -0.05720
C2090       C  0.99201297  0.63035443  0.45321674    -0.33150
C2091       C  0.02102926  0.62604945  0.44796130     0.36100
C2092       C  0.04024358  0.62432516  0.47029062    -0.06080
C2093       C  0.02927852  0.62498443  0.49762840    -0.33050
C2094       C  0.00046473  0.62872505  0.50286601     0.36010
H2095       H  0.97819338  0.63415241  0.43574624     0.16380
O2096       O  0.03064880  0.62633501  0.42093515    -0.60540
H2097       H  0.04344265  0.62405584  0.51520524     0.16390
O2098       O  0.99146450  0.63119445  0.52998513    -0.60640
H2099       H  0.98484906  0.61193311  0.53554148     0.43390
H2100       H  0.03072797  0.60616532  0.41534899     0.43340
C2101       C  0.07882368  0.73291707  0.35778313    -0.05720
C2102       C  0.06726935  0.70928826  0.37184630    -0.33150
C2103       C  0.08065906  0.69849980  0.39548268     0.36100
C2104       C  0.10668679  0.71019367  0.40339079    -0.06080
C2105       C  0.12103148  0.72831240  0.38445524    -0.33050
C2106       C  0.10732496  0.73922260  0.36119411     0.36010
H2107       H  0.04559872  0.70325772  0.36838283     0.16380
O2108       O  0.06720110  0.67832814  0.41165284    -0.60540
H2109       H  0.14188888  0.73620478  0.38894602     0.16390
O2110       O  0.11965528  0.76093077  0.34613236    -0.60640
H2111       H  0.12671496  0.75200663  0.32885196     0.43390
H2112       H  0.05536939  0.68905203  0.42485478     0.43340
C2113       C  0.93312017  0.73181653  0.44581248    -0.05720
C2114       C  0.95479635  0.71340554  0.43865677    -0.33150
C2115       C  0.97135142  0.71859750  0.41526644     0.36100
C2116       C  0.96616300  0.74246588  0.39859488    -0.06080
C2117       C  0.94243789  0.75913881  0.40373726    -0.33050
C2118       C  0.92577438  0.75384907  0.42743867     0.36010
H2119       H  0.95969567  0.69541346  0.45169406     0.16380
O2120       O  0.99364597  0.70131802  0.40973527    -0.60540
H2121       H  0.93848180  0.77782642  0.39102935     0.16390
O2122       O  0.90374196  0.77126872  0.43337368    -0.60640
H2123       H  0.91174596  0.78652756  0.44505094     0.43390
H2124       H  0.00778677  0.70582626  0.42413662     0.43340
C2125       C  0.05351735  0.88074621  0.32826923    -0.05720
C2126       C  0.07630730  0.87354562  0.31121383    -0.33150
C2127       C  0.10084430  0.88985593  0.31140721     0.36100
C2128       C  0.10289042  0.91321039  0.32921162    -0.06080
C2129       C  0.08047209  0.92016413  0.34663657    -0.33050
C2130       C  0.05570426  0.90436679  0.34601948     0.36010
H2131       H  0.07512953  0.85527337  0.29775664     0.16380
O2132       O  0.12285117  0.88275017  0.29438198    -0.60540
H2133       H  0.08165018  0.93879128  0.35964976     0.16390
O2134       O  0.03352561  0.91273713  0.36222569    -0.60640
H2135       H  0.02208629  0.92494725  0.34983952     0.43390
H2136       H  0.11840450  0.89108452  0.27584252     0.43340
C2137       C  0.93497607  0.89343215  0.34110009    -0.05720
C2138       C  0.93087430  0.90783627  0.36623692    -0.33150
C2139       C  0.91195705  0.93009882  0.36761580     0.36100
C2140       C  0.89670592  0.93782042  0.34369039    -0.06080
C2141       C  0.90120682  0.92369717  0.31851633    -0.33050
C2142       C  0.92001691  0.90154713  0.31710749     0.36010
H2143       H  0.94256386  0.90204079  0.38473693     0.16380
O2144       O  0.90868901  0.94420447  0.39229795    -0.60540
H2145       H  0.88948081  0.92926479  0.29996972     0.16390
O2146       O  0.92307812  0.88756089  0.29231885    -0.60640
H2147       H  0.90935383  0.87164746  0.29327791     0.43390
H2148       H  0.92139083  0.96092919  0.39077370     0.43340
C2149       C  0.99700502  0.75688899  0.25541185    -0.05720
C2150       C  0.01542009  0.75935681  0.23227782    -0.33150
C2151       C  0.01601991  0.73828857  0.21138239     0.36100
C2152       C  0.99776842  0.71459612  0.21325498    -0.06080
C2153       C  0.97835974  0.71331449  0.23545557    -0.33050
C2154       C  0.97783981  0.73398806  0.25619382     0.36010
H2155       H  0.03041606  0.77672644  0.23122696     0.16380
O2156       O  0.03605544  0.73982276  0.19077017    -0.60540
H2157       H  0.96423312  0.69525723  0.23748328     0.16390
O2158       O  0.95899459  0.73101752  0.27781226    -0.60640
H2159       H  0.94251667  0.74226537  0.27206980     0.43390
H2160       H  0.02707564  0.75010844  0.17508555     0.43340
C2161       C  0.06648825  0.75510632  0.57202018    -0.05720
C2162       C  0.08361324  0.77104562  0.55353379    -0.33150
C2163       C  0.09860542  0.75809054  0.53259638     0.36100
C2164       C  0.09753861  0.72844872  0.53041879    -0.06080
C2165       C  0.08160918  0.71228090  0.54981625    -0.33050
C2166       C  0.06612219  0.72541156  0.57056072     0.36010
H2167       H  0.08480069  0.79396354  0.55451662     0.16380
O2168       O  0.11380794  0.77478236  0.51422685    -0.60540
H2169       H  0.08082032  0.68935097  0.54881225     0.16390
O2170       O  0.05003574  0.70908216  0.58846331    -0.60640
H2171       H  0.06254230  0.70434224  0.60426658     0.43390
H2172       H  0.10043630  0.78017525  0.49935302     0.43340
C2173       C  0.94332450  0.77746379  0.59352168    -0.05720
C2174       C  0.93573880  0.79041890  0.56812030    -0.33150
C2175       C  0.91213685  0.78083150  0.55385646     0.36100
C2176       C  0.89718481  0.75732489  0.56462772    -0.06080
C2177       C  0.90025675  0.74997013  0.59285299    -0.33050
C2178       C  0.92367616  0.75957920  0.60735744     0.36010
H2179       H  0.94941481  0.80594732  0.55801318     0.16380
O2180       O  0.90738426  0.79044359  0.52712562    -0.60540
H2181       H  0.88795116  0.73262013  0.60174989     0.16390
O2182       O  0.92880961  0.74849876  0.63340159    -0.60640
H2183       H  0.92057026  0.76221670  0.64658488     0.43390
H2184       H  0.92151364  0.78101482  0.51521420     0.43340
C2185       C  0.90884544  0.94622247  0.64381427    -0.05720
C2186       C  0.90238611  0.91752963  0.64000672    -0.33150
C2187       C  0.92186485  0.89684218  0.64710638     0.36100
C2188       C  0.94812014  0.90505440  0.65762942    -0.06080
C2189       C  0.95406942  0.93366194  0.66241874    -0.33050
C2190       C  0.93463345  0.95425266  0.65558844     0.36010
H2191       H  0.88227948  0.91121333  0.63159259     0.16380
O2192       O  0.91620414  0.86901855  0.64109013    -0.60540
H2193       H  0.97461245  0.94015307  0.66963657     0.16390
O2194       O  0.94135838  0.98226029  0.65965001    -0.60640
H2195       H  0.94859457  0.98929673  0.64135055     0.43390
H2196       H  0.90831549  0.86073604  0.65860970     0.43340
C2197       C  0.06583566  0.89571626  0.63231278    -0.05720
C2198       C  0.09211420  0.88744557  0.64249579    -0.33150
C2199       C  0.11499866  0.90667707  0.64155479     0.36100
C2200       C  0.11141080  0.93418357  0.63027077    -0.06080
C2201       C  0.08477725  0.94254232  0.62165565    -0.33050
C2202       C  0.06219741  0.92382302  0.62283856     0.36010
H2203       H  0.09517159  0.86592484  0.64991782     0.16380
O2204       O  0.14080743  0.89806406  0.65049607    -0.60540
H2205       H  0.08146223  0.96380992  0.61355449     0.16390
O2206       O  0.03660310  0.93299112  0.61369173    -0.60640
H2207       H  0.02761541  0.94161776  0.63023544     0.43390
H2208       H  0.15019146  0.89043349  0.63368267     0.43340
C2209       C  0.00482802  0.85117913  0.51438569    -0.05720
C2210       C  0.98411471  0.86391491  0.49744144    -0.33150
C2211       C  0.98349096  0.85973470  0.46798695     0.36100
C2212       C  0.00374076  0.84257813  0.45487460    -0.06080
C2213       C  0.02510147  0.83140220  0.47165973    -0.33050
C2214       C  0.02583876  0.83547203  0.50064559     0.36010
H2215       H  0.96767462  0.87610040  0.50714684     0.16380
O2216       O  0.96192515  0.87079256  0.45271968    -0.60540
H2217       H  0.04118501  0.81846750  0.46226103     0.16390
O2218       O  0.04753417  0.82386062  0.51539349    -0.60640
H2219       H  0.04285823  0.80338077  0.51723554     0.43390
H2220       H  0.96900118  0.88939928  0.44569150     0.43340
C2221       C  0.59647470  0.44416735  0.81800082    -0.05720
C2222       C  0.57161000  0.45416549  0.80622315    -0.33150
C2223       C  0.54979861  0.43543362  0.80016038     0.36100
C2224       C  0.55303372  0.40621189  0.80518946    -0.06080
C2225       C  0.57855717  0.39602098  0.81539944    -0.33050
C2226       C  0.60015304  0.41491988  0.82218767     0.36010
H2227       H  0.56885746  0.47666740  0.80242680     0.16380
O2228       O  0.52484750  0.44597512  0.79074911    -0.60540
H2229       H  0.58103318  0.37362640  0.81995944     0.16390
O2230       O  0.62485319  0.40465901  0.83248247    -0.60640
H2231       H  0.62197538  0.40321872  0.85298354     0.43390
H2232       H  0.52581129  0.44445577  0.77012979     0.43340
C2233       C  0.60065396  0.43506916  0.16197652    -0.05720
C2234       C  0.57316904  0.44205523  0.16965176    -0.33150
C2235       C  0.55182316  0.42171515  0.16872729     0.36100
C2236       C  0.55801114  0.39399909  0.16023291    -0.06080
C2237       C  0.58611804  0.38580282  0.15799200    -0.33050
C2238       C  0.60758306  0.40634491  0.15869378     0.36010
H2239       H  0.56760116  0.46403545  0.17270556     0.16380
O2240       O  0.52457458  0.43009263  0.17209197    -0.60540
H2241       H  0.59119216  0.36442739  0.15180340     0.16390
O2242       O  0.63449456  0.39874733  0.15218007    -0.60640
H2243       H  0.63541732  0.39871839  0.13147602     0.43390
H2244       H  0.51933420  0.42409933  0.19136017     0.43340
C2245       C  0.75736956  0.48494007  0.25155271    -0.05720
C2246       C  0.75596340  0.46501411  0.22998364    -0.33150
C2247       C  0.73659307  0.46772450  0.20818997     0.36100
C2248       C  0.71806964  0.49084571  0.20711385    -0.06080
C2249       C  0.71809960  0.50986380  0.22950812    -0.33050
C2250       C  0.73728728  0.50687192  0.25174565     0.36010
H2251       H  0.77090153  0.44788284  0.22925747     0.16380
O2252       O  0.73767306  0.44896631  0.18654274    -0.60540
H2253       H  0.70471295  0.52826339  0.22875392     0.16390
O2254       O  0.73805949  0.52719326  0.27195860    -0.60640
H2255       H  0.72427778  0.52070331  0.28630318     0.43390
H2256       H  0.72297241  0.43455332  0.19089271     0.43340
C2257       C  0.63549085  0.50136918  0.94627553    -0.05720
C2258       C  0.62953222  0.47614602  0.96129591    -0.33150
C2259       C  0.62763124  0.47590368  0.99087719     0.36100
C2260       C  0.63233745  0.50104141  0.00608777    -0.06080
C2261       C  0.63698553  0.52635339  0.99088025    -0.33050
C2262       C  0.63827711  0.52668058  0.96151108     0.36010
H2263       H  0.62832234  0.45625456  0.95027341     0.16380
O2264       O  0.62315000  0.45063953  0.00474523    -0.60540
H2265       H  0.64068680  0.54595534  0.00190323     0.16390
O2266       O  0.64484668  0.55165106  0.94790953    -0.60640
H2267       H  0.62662572  0.55942608  0.94181512     0.43390
H2268       H  0.64158624  0.44113313  0.00487722     0.43340
C2269       C  0.73249518  0.39791024  0.05542158    -0.05720
C2270       C  0.71093312  0.41289292  0.04249556    -0.33150
C2271       C  0.70386863  0.43948738  0.05272659     0.36100
C2272       C  0.71607679  0.44891843  0.07783350    -0.06080
C2273       C  0.73063780  0.42931745  0.09450611    -0.33050
C2274       C  0.73788727  0.40306454  0.08367712     0.36010
H2275       H  0.70481253  0.40767649  0.02138439     0.16380
O2276       O  0.68687492  0.45664143  0.03707101    -0.60540
H2277       H  0.73844193  0.43511093  0.11487214     0.16390
O2278       O  0.75656340  0.38650872  0.09791264    -0.60640
H2279       H  0.74527317  0.37033452  0.10536852     0.43390
H2280       H  0.69926815  0.46536269  0.02256773     0.43340
C2281       C  0.76279707  0.43423026  0.93875639    -0.05720
C2282       C  0.73644775  0.42883653  0.92723851    -0.33150
C2283       C  0.72647914  0.44636490  0.90567012     0.36100
C2284       C  0.74314201  0.46924732  0.89570686    -0.06080
C2285       C  0.77056257  0.47250275  0.90521412    -0.33050
C2286       C  0.78061016  0.45481317  0.92630769     0.36010
H2287       H  0.72288217  0.41256588  0.93627894     0.16380
O2288       O  0.69970501  0.44251737  0.89600685    -0.60540
H2289       H  0.78349372  0.49002588  0.89765812     0.16390
O2290       O  0.80729252  0.45904992  0.93594149    -0.60640
H2291       H  0.81881090  0.44455945  0.92653273     0.43390
H2292       H  0.68714893  0.44754119  0.91173580     0.43340
C2293       C  0.89078006  0.34279698  0.03421065    -0.05720
C2294       C  0.88740246  0.32432770  0.05728169    -0.33150
C2295       C  0.90952967  0.32011015  0.07616385     0.36100
C2296       C  0.93550704  0.33407427  0.07169660    -0.06080
C2297       C  0.93895120  0.35161317  0.04806966    -0.33050
C2298       C  0.91704791  0.35606216  0.02955130     0.36010
H2299       H  0.86743291  0.31382713  0.06108365     0.16380
O2300       O  0.90527148  0.30302858  0.09920456    -0.60540
H2301       H  0.95886177  0.36211268  0.04384497     0.16390
O2302       O  0.92191903  0.37266957  0.00624010    -0.60640
H2303       H  0.92073065  0.39250551  0.01276275     0.43390
H2304       H  0.89919455  0.31597167  0.11420426     0.43340
C2305       C  0.75031582  0.29393701  0.98403529    -0.05720
C2306       C  0.72249330  0.30354643  0.98642260    -0.33150
C2307       C  0.69949476  0.28476094  0.98606889     0.36100
C2308       C  0.70364920  0.25539908  0.98302054    -0.06080
C2309       C  0.73150559  0.24569031  0.98095936    -0.33050
C2310       C  0.75457159  0.26455118  0.98137553     0.36010
H2311       H  0.71835496  0.32594487  0.98868468     0.16380
O2312       O  0.67304150  0.29554170  0.98863781    -0.60540
H2313       H  0.73556604  0.22327845  0.97872940     0.16390
O2314       O  0.78109661  0.25393254  0.97888016    -0.60640
H2315       H  0.78494294  0.25356564  0.95850742     0.43390
H2316       H  0.66921863  0.29583313  0.00901811     0.43340
C2317       C  0.75637267  0.60474432  0.00919432    -0.05720
C2318       C  0.76661887  0.60478745  0.03651831    -0.33150
C2319       C  0.75206743  0.59056461  0.05789231     0.36100
C2320       C  0.72699430  0.57598888  0.05190050    -0.06080
C2321       C  0.71560309  0.57798038  0.02495389    -0.33050
C2322       C  0.73042638  0.59191765  0.00348354     0.36010
H2323       H  0.78687812  0.61425510  0.04090596     0.16380
O2324       O  0.76326350  0.58977067  0.08419266    -0.60540
H2325       H  0.69628671  0.56691361  0.02001827     0.16390
O2326       O  0.72036134  0.59132344  0.97672107    -0.60640
H2327       H  0.72719496  0.57329692  0.96882053     0.43390
H2328       H  0.75429677  0.60558120  0.09424968     0.43340
C2329       C  0.77676251  0.63644829  0.88493098    -0.05720
C2330       C  0.78829623  0.61627451  0.86697360    -0.33150
C2331       C  0.77085566  0.59570229  0.85534438     0.36100
C2332       C  0.74193663  0.59686075  0.86085714    -0.06080
C2333       C  0.73052106  0.62187780  0.87154675    -0.33050
C2334       C  0.74808176  0.64216022  0.88333587     0.36010
H2335       H  0.81066101  0.61249241  0.86724162     0.16380
O2336       O  0.78260749  0.57208346  0.84386022    -0.60540
H2337       H  0.70809249  0.62361884  0.87466115     0.16390
O2338       O  0.73656638  0.66299137  0.89937070    -0.60640
H2339       H  0.73872461  0.68062944  0.88806347     0.43390
H2340       H  0.78218327  0.57553297  0.82340261     0.43340
C2341       C  0.88685830  0.65062861  0.06851725    -0.05720
C2342       C  0.89019443  0.62487362  0.08300036    -0.33150
C2343       C  0.91296837  0.62105316  0.10077620     0.36100
C2344       C  0.93282269  0.64306033  0.10404697    -0.06080
C2345       C  0.92766181  0.66975595  0.09253127    -0.33050
C2346       C  0.90509759  0.67370327  0.07466481     0.36010
H2347       H  0.87617248  0.60713125  0.07931161     0.16380
O2348       O  0.91668251  0.59514042  0.11340765    -0.60540
H2349       H  0.94263288  0.68694290  0.09510912     0.16390
O2350       O  0.90232704  0.69978459  0.06201045    -0.60640
H2351       H  0.91597493  0.69999231  0.04627567     0.43390
H2352       H  0.91029486  0.59768450  0.13295446     0.43340
C2353       C  0.87077777  0.54014874  0.98855112    -0.05720
C2354       C  0.87813033  0.52309446  0.96561498    -0.33150
C2355       C  0.87727758  0.49326346  0.96752640     0.36100
C2356       C  0.86911724  0.47980497  0.99269933    -0.06080
C2357       C  0.86579043  0.49674657  0.01654529    -0.33050
C2358       C  0.86653636  0.52661510  0.01465125     0.36010
H2359       H  0.88128965  0.53288840  0.94523272     0.16380
O2360       O  0.88015725  0.47775426  0.94365921    -0.60540
H2361       H  0.85906787  0.48690298  0.03606417     0.16390
O2362       O  0.85932252  0.54213446  0.03761230    -0.60640
H2363       H  0.83854613  0.54254932  0.03771419     0.43390
H2364       H  0.89983390  0.47121830  0.94375594     0.43340
C2365       C  0.56649721  0.60629019  0.82203988    -0.05720
C2366       C  0.57729087  0.59679474  0.79643648    -0.33150
C2367       C  0.59816788  0.57599767  0.79564438     0.36100
C2368       C  0.60847745  0.56419857  0.82073438    -0.06080
C2369       C  0.59879977  0.57489344  0.84622624    -0.33050
C2370       C  0.57815869  0.59566659  0.84707024     0.36010
H2371       H  0.56877008  0.60465771  0.77694983     0.16380
O2372       O  0.60691909  0.56608450  0.77027227    -0.60540
H2373       H  0.60694811  0.56675888  0.86578660     0.16390
O2374       O  0.56975807  0.60562544  0.87258342    -0.60640
H2375       H  0.55687111  0.59087494  0.88038095     0.43390
H2376       H  0.62215320  0.57924729  0.76417421     0.43340
C2377       C  0.44566883  0.59468031  0.82945242    -0.05720
C2378       C  0.42549936  0.59387596  0.85089396    -0.33150
C2379       C  0.40395713  0.57386020  0.85103786     0.36100
C2380       C  0.40207111  0.55398929  0.82932120    -0.06080
C2381       C  0.42254493  0.55438310  0.80807614    -0.33050
C2382       C  0.44420999  0.57455528  0.80797455     0.36010
H2383       H  0.42595821  0.60927391  0.86750750     0.16380
O2384       O  0.38419073  0.57488501  0.87192418    -0.60540
H2385       H  0.42177282  0.53908034  0.79139852     0.16390
O2386       O  0.46412356  0.57392151  0.78720657    -0.60640
H2387       H  0.45563835  0.58390878  0.77105090     0.43390
H2388       H  0.39228420  0.56411216  0.88780069     0.43340
C2389       C  0.57476608  0.60653100  0.13378089    -0.05720
C2390       C  0.59130061  0.60310243  0.10981386    -0.33150
C2391       C  0.60923021  0.58015185  0.10775823     0.36100
C2392       C  0.61046591  0.56013928  0.12974805    -0.06080
C2393       C  0.59686296  0.56554776  0.15508678    -0.33050
C2394       C  0.57901548  0.58874767  0.15727508     0.36010
H2395       H  0.58877087  0.61702005  0.09184577     0.16380
O2396       O  0.62355526  0.57604062  0.08322645    -0.60540
H2397       H  0.59784957  0.55035039  0.17219723     0.16390
O2398       O  0.56320411  0.59156588  0.18108267    -0.60640
H2399       H  0.57466590  0.60363906  0.19349346     0.43390
H2400       H  0.64162766  0.58626378  0.08550714     0.43340
C2401       C  0.45643352  0.58287625  0.12672997    -0.05720
C2402       C  0.45009364  0.56934145  0.10146081    -0.33150
C2403       C  0.42666233  0.55168625  0.09938159     0.36100
C2404       C  0.40949723  0.54699551  0.12292851    -0.06080
C2405       C  0.41685442  0.55905306  0.14858590    -0.33050
C2406       C  0.44011463  0.57682066  0.15065968     0.36010
H2407       H  0.46269804  0.57332314  0.08288871     0.16380
O2408       O  0.42099397  0.53888628  0.07443924    -0.60540
H2409       H  0.40395918  0.55550321  0.16703810     0.16390
O2410       O  0.44527745  0.58979481  0.17561768    -0.60640
H2411       H  0.45724130  0.57639907  0.18615676     0.43390
H2412       H  0.41101586  0.55334756  0.06318220     0.43340
C2413       C  0.51292759  0.72954786  0.19916530    -0.05720
C2414       C  0.49931835  0.75544072  0.19469700    -0.33150
C2415       C  0.49613873  0.77504622  0.21612671     0.36100
C2416       C  0.50712103  0.76957846  0.24302642    -0.06080
C2417       C  0.51997249  0.74331211  0.24797342    -0.33050
C2418       C  0.52280244  0.72333883  0.22638848     0.36010
H2419       H  0.49080608  0.76061330  0.17436242     0.16380
O2420       O  0.48236554  0.79979986  0.21030060    -0.60540
H2421       H  0.52867658  0.73860772  0.26832131     0.16390
O2422       O  0.53635251  0.69842310  0.23189781    -0.60640
H2423       H  0.52182388  0.68558144  0.24007263     0.43390
H2424       H  0.46265118  0.79618578  0.21608747     0.43340
C2425       C  0.50373194  0.63258395  0.94757846    -0.05720
C2426       C  0.52746862  0.62356677  0.96244153    -0.33150
C2427       C  0.52716988  0.62178374  0.99191813     0.36100
C2428       C  0.50292553  0.62925472  0.00700170    -0.06080
C2429       C  0.47839688  0.63510580  0.99187218    -0.33050
C2430       C  0.47870123  0.63692304  0.96256375     0.36010
H2431       H  0.54714739  0.62088390  0.95142190     0.16380
O2432       O  0.55177246  0.61695722  0.00570171    -0.60540
H2433       H  0.45966047  0.64152507  0.00294325     0.16390
O2434       O  0.45537069  0.64662331  0.94905089    -0.60640
H2435       H  0.44565592  0.62935847  0.94231922     0.43390
H2436       H  0.55148134  0.59639507  0.01024702     0.43340
C2437       C  0.59621559  0.78111443  0.02476117    -0.05720
C2438       C  0.57075507  0.79174379  0.03489006    -0.33150
C2439       C  0.56037661  0.78335027  0.06103545     0.36100
C2440       C  0.57396646  0.76170933  0.07585016    -0.06080
C2441       C  0.60169109  0.75521083  0.06845140    -0.33050
C2442       C  0.61284427  0.76464187  0.04279277     0.36010
H2443       H  0.55832416  0.80589880  0.02223196     0.16380
O2444       O  0.53390088  0.79135349  0.06872198    -0.60540
H2445       H  0.61274764  0.73896766  0.08003168     0.16390
O2446       O  0.63860653  0.75522394  0.03436914    -0.60640
H2447       H  0.65229962  0.76855559  0.04270611     0.43390
H2448       H  0.53669554  0.80818899  0.08062071     0.43340
C2449       C  0.62563128  0.78413299  0.89160144    -0.05720
C2450       C  0.60863626  0.79373751  0.86961694    -0.33150
C2451       C  0.59480490  0.77407448  0.85304736     0.36100
C2452       C  0.59855916  0.74516715  0.85902095    -0.06080
C2453       C  0.62243259  0.73680402  0.87394728    -0.33050
C2454       C  0.63587185  0.75635254  0.89097513     0.36010
H2455       H  0.60207612  0.81566402  0.86869249     0.16380
O2456       O  0.57337988  0.78305094  0.83629109    -0.60540
H2457       H  0.62676169  0.71447800  0.87709673     0.16390
O2458       O  0.65424552  0.74677360  0.91074628    -0.60640
H2459       H  0.67308858  0.75018859  0.90246917     0.43390
H2460       H  0.58095141  0.78219078  0.81699119     0.43340
C2461       C  0.65662528  0.92229955  0.05199036    -0.05720
C2462       C  0.67763889  0.92377152  0.07224170    -0.33150
C2463       C  0.67646166  0.94417011  0.09320626     0.36100
C2464       C  0.65410415  0.96351625  0.09378226    -0.06080
C2465       C  0.63368666  0.96238338  0.07276653    -0.33050
C2466       C  0.63482554  0.94203522  0.05206385     0.36010
H2467       H  0.69445093  0.90849936  0.07234398     0.16380
O2468       O  0.69640686  0.94403204  0.11368242    -0.60540
H2469       H  0.61653183  0.97725199  0.07235971     0.16390
O2470       O  0.61442126  0.94154126  0.03200847    -0.60640
H2471       H  0.62238209  0.95248288  0.01596206     0.43390
H2472       H  0.71241556  0.95509130  0.10576191     0.43340
C2473       C  0.73020841  0.78268269  0.97321493    -0.05720
C2474       C  0.75833481  0.78889709  0.97962770    -0.33150
C2475       C  0.77900104  0.76770099  0.97926041     0.36100
C2476       C  0.77194682  0.73941054  0.97231985    -0.06080
C2477       C  0.74409358  0.73354988  0.96479835    -0.33050
C2478       C  0.72346121  0.75452430  0.96538927     0.36010
H2479       H  0.76430771  0.81016459  0.98564193     0.16380
O2480       O  0.80588220  0.77489392  0.98641424    -0.60540
H2481       H  0.73785348  0.71222652  0.95919556     0.16390
O2482       O  0.69664356  0.74699112  0.95825337    -0.60640
H2483       H  0.68832658  0.73826806  0.97538594     0.43390
H2484       H  0.81527471  0.78025165  0.96855573     0.43340
C2485       C  0.39715738  0.73570225  0.05418312    -0.05720
C2486       C  0.40476858  0.74286663  0.08157018    -0.33150
C2487       C  0.43186855  0.73662308  0.09065732     0.36100
C2488       C  0.44940532  0.72084209  0.07313554    -0.06080
C2489       C  0.43760024  0.70648503  0.05041969    -0.33050
C2490       C  0.41036676  0.71245816  0.04206547     0.36010
H2491       H  0.39313018  0.75897114  0.09251285     0.16380
O2492       O  0.44201829  0.74902831  0.11432940    -0.60540
H2493       H  0.45000894  0.69212475  0.03807069     0.16390
O2494       O  0.40096467  0.70192984  0.01721606    -0.60640
H2495       H  0.38689029  0.68720017  0.02250683     0.43390
H2496       H  0.43756793  0.73536423  0.12965817     0.43340
C2497       C  0.43489945  0.76382326  0.93599963    -0.05720
C2498       C  0.43243866  0.73568410  0.92726509    -0.33150
C2499       C  0.45122329  0.72505381  0.90733574     0.36100
C2500       C  0.47289949  0.74257848  0.89635853    -0.06080
C2501       C  0.47385608  0.77121829  0.90348056    -0.33050
C2502       C  0.45474301  0.78196621  0.92282437     0.36010
H2503       H  0.41742533  0.72147176  0.93734289     0.16380
O2504       O  0.45017022  0.69677220  0.90104751    -0.60540
H2505       H  0.49048798  0.78483760  0.89534822     0.16390
O2506       O  0.45706725  0.80980521  0.93046684    -0.60640
H2507       H  0.44249887  0.81986258  0.91962773     0.43390
H2508       H  0.43968863  0.69572694  0.88327672     0.43340
C2509       C  0.34311772  0.88397185  0.04121096    -0.05720
C2510       C  0.36398047  0.88583147  0.06157908    -0.33150
C2511       C  0.36351759  0.90739152  0.08133303     0.36100
C2512       C  0.34203173  0.92769336  0.08079308    -0.06080
C2513       C  0.31929613  0.92370206  0.06275397    -0.33050
C2514       C  0.31966519  0.90184713  0.04304418     0.36010
H2515       H  0.38180170  0.87178293  0.06092027     0.16380
O2516       O  0.38529613  0.90984966  0.09978653    -0.60540
H2517       H  0.30277095  0.93926509  0.06184112     0.16390
O2518       O  0.29882707  0.90049668  0.02353056    -0.60640
H2519       H  0.28433102  0.88776606  0.03192288     0.43390
H2520       H  0.40155455  0.91680483  0.08854644     0.43340
C2521       C  0.29263706  0.75549309  0.97506890    -0.05720
C2522       C  0.26441278  0.76349222  0.97205294    -0.33150
C2523       C  0.24269165  0.74315276  0.96977388     0.36100
C2524       C  0.24863894  0.71381868  0.97071354    -0.06080
C2525       C  0.27687875  0.70587817  0.97355222    -0.33050
C2526       C  0.29855621  0.72614982  0.97577493     0.36010
H2527       H  0.25901876  0.78573862  0.97137955     0.16380
O2528       O  0.21566017  0.75236906  0.96729717    -0.60540
H2529       H  0.28234958  0.68365505  0.97443627     0.16390
O2530       O  0.32549491  0.71680082  0.97878244    -0.60640
H2531       H  0.32819807  0.71463029  0.99921509     0.43390
H2532       H  0.21283706  0.75532268  0.94697253     0.43340
C2533       C  0.47861055  0.87451491  0.99100521    -0.05720
C2534       C  0.49340837  0.87578722  0.01629345    -0.33150
C2535       C  0.52272448  0.87987396  0.01665312     0.36100
C2536       C  0.53802518  0.88285693  0.99146539    -0.06080
C2537       C  0.52279506  0.88474222  0.96641285    -0.33050
C2538       C  0.49347992  0.88032853  0.96601551     0.36010
H2539       H  0.48266575  0.87051802  0.03570712     0.16380
O2540       O  0.53661241  0.87680527  0.04145505    -0.60540
H2541       H  0.53402295  0.88609179  0.94668511     0.16390
O2542       O  0.47999777  0.87885065  0.94084814    -0.60640
H2543       H  0.48513694  0.86022578  0.93302176     0.43390
H2544       H  0.53963104  0.89639552  0.04816700     0.43340
C2545       C  0.61238490  0.84795930  0.54110692    -0.05720
C2546       C  0.61113274  0.82635151  0.56160701    -0.33150
C2547       C  0.58851272  0.82449029  0.58058205     0.36100
C2548       C  0.56673232  0.84453416  0.57928799    -0.06080
C2549       C  0.56807353  0.86584029  0.55860613    -0.33050
C2550       C  0.59020991  0.86758430  0.53968437     0.36010
H2551       H  0.62770055  0.81088165  0.56297836     0.16380
O2552       O  0.58828707  0.80339462  0.60052936    -0.60540
H2553       H  0.55163434  0.88140709  0.55669667     0.16390
O2554       O  0.58950592  0.88853814  0.51956491    -0.60640
H2555       H  0.57967991  0.87992901  0.50351213     0.43390
H2556       H  0.57941364  0.78683093  0.59143570     0.43340
C2557       C  0.45223956  0.84541077  0.56706064    -0.05720
C2558       C  0.45090764  0.86858163  0.54855885    -0.33150
C2559       C  0.43498259  0.86695733  0.52439175     0.36100
C2560       C  0.41955246  0.84206295  0.51880335    -0.06080
C2561       C  0.42217878  0.81832762  0.53648630    -0.33050
C2562       C  0.43850650  0.81982097  0.56047407     0.36010
H2563       H  0.46225480  0.88804746  0.55285302     0.16380
O2564       O  0.43389193  0.89015603  0.50688459    -0.60540
H2565       H  0.41027088  0.79910122  0.53265604     0.16390
O2566       O  0.43929811  0.79685778  0.57830158    -0.60640
H2567       H  0.45334267  0.78397879  0.57008183     0.43390
H2568       H  0.44783571  0.88646486  0.49194982     0.43340
C2569       C  0.52005830  0.78223625  0.71447403    -0.05720
C2570       C  0.53655421  0.75773565  0.71234148    -0.33150
C2571       C  0.53576168  0.73634597  0.73330248     0.36100
C2572       C  0.51813758  0.73900716  0.75694678    -0.06080
C2573       C  0.50163987  0.76348342  0.75891920    -0.33050
C2574       C  0.50229107  0.78468465  0.73799112     0.36010
H2575       H  0.55046288  0.75535727  0.69457151     0.16380
O2576       O  0.55336624  0.71367369  0.73115251    -0.60540
H2577       H  0.48770739  0.76600952  0.77665520     0.16390
O2578       O  0.48484767  0.80746981  0.74044150    -0.60640
H2579       H  0.46760652  0.80206592  0.73026349     0.43390
H2580       H  0.54353943  0.70010029  0.71886570     0.43340
C2581       C  0.57242098  0.16048139  0.59122885    -0.05720
C2582       C  0.58058054  0.18688122  0.57978142    -0.33150
C2583       C  0.60067067  0.18863802  0.55851813     0.36100
C2584       C  0.61332257  0.16374401  0.54879472    -0.06080
C2585       C  0.60711115  0.13772637  0.56217035    -0.33050
C2586       C  0.58684033  0.13596251  0.58324706     0.36010
H2587       H  0.56986009  0.20604856  0.58574300     0.16380
O2588       O  0.60609582  0.21446445  0.54603426    -0.60540
H2589       H  0.61701621  0.11840888  0.55532748     0.16390
O2590       O  0.58032162  0.10997196  0.59484033    -0.60640
H2591       H  0.59141070  0.10887356  0.61225182     0.43390
H2592       H  0.59184853  0.21639039  0.53115932     0.43340
C2593       C  0.41526825  0.14572556  0.52288142    -0.05720
C2594       C  0.42299134  0.17224826  0.53365911    -0.33150
C2595       C  0.44363368  0.17444932  0.55396560     0.36100
C2596       C  0.45684234  0.14984410  0.56391980    -0.06080
C2597       C  0.45062085  0.12361176  0.55177662    -0.33050
C2598       C  0.43004118  0.12139956  0.53134822     0.36010
H2599       H  0.41206027  0.19129371  0.52741105     0.16380
O2600       O  0.44890605  0.20037222  0.56561624    -0.60540
H2601       H  0.46114477  0.10456923  0.55875840     0.16390
O2602       O  0.42454407  0.09541259  0.51990318    -0.60640
H2603       H  0.41268015  0.08515693  0.53387425     0.43390
H2604       H  0.46303077  0.20960599  0.55314432     0.43340
C2605       C  0.49657492  0.27926485  0.74393754    -0.05720
C2606       C  0.48108785  0.25370649  0.74537149    -0.33150
C2607       C  0.48565971  0.23164704  0.72660280     0.36100
C2608       C  0.50564637  0.23467682  0.70498498    -0.06080
C2609       C  0.51966542  0.26107048  0.70189782    -0.33050
C2610       C  0.51561832  0.28306954  0.72147958     0.36010
H2611       H  0.46675878  0.24988953  0.76271322     0.16380
O2612       O  0.47103992  0.20666701  0.73025879    -0.60540
H2613       H  0.53491798  0.26405998  0.68524886     0.16390
O2614       O  0.53211347  0.30697752  0.71986003    -0.60640
H2615       H  0.52096620  0.32091015  0.70910029     0.43390
H2616       H  0.45435023  0.20844442  0.71816793     0.43340
C2617       C  0.50636487  0.03227060  0.61169203    -0.05720
C2618       C  0.52967064  0.01679058  0.60253992    -0.33150
C2619       C  0.52814031  0.98702800  0.59942701     0.36100
C2620       C  0.50322877  0.97189758  0.60611657    -0.06080
C2621       C  0.47928912  0.98775797  0.61265865    -0.33050
C2622       C  0.48065479  0.01751460  0.61524451     0.36010
H2623       H  0.54983493  0.02736381  0.60041447     0.16380
O2624       O  0.55225661  0.97253922  0.59384925    -0.60540
H2625       H  0.46016257  0.97677516  0.61889950     0.16390
O2626       O  0.45758448  0.03144730  0.62508377    -0.60640
H2627       H  0.44877175  0.03991285  0.60829179     0.43390
H2628       H  0.55148862  0.96839291  0.57361508     0.43340
C2629       C  0.39963289  0.08323587  0.71910778    -0.05720
C2630       C  0.40338437  0.08539882  0.69022036    -0.33150
C2631       C  0.42543005  0.10185042  0.67954473     0.36100
C2632       C  0.44365755  0.11546560  0.69824012    -0.06080
C2633       C  0.43534734  0.11909880  0.72599519    -0.33050
C2634       C  0.41310399  0.10278536  0.73665645     0.36010
H2635       H  0.39274142  0.07070142  0.67656106     0.16380
O2636       O  0.43229834  0.09985944  0.65177771    -0.60540
H2637       H  0.44883781  0.13026145  0.74039206     0.16390
O2638       O  0.40852399  0.10175053  0.76501367    -0.60640
H2639       H  0.42345123  0.08949015  0.77272250     0.43390
H2640       H  0.42681945  0.11827423  0.64335481     0.43340
C2641       C  0.43685376  0.96212004  0.72885018    -0.05720
C2642       C  0.43578206  0.93284006  0.73465053    -0.33150
C2643       C  0.45699200  0.91493902  0.72455409     0.36100
C2644       C  0.47994429  0.92668453  0.70949188    -0.06080
C2645       C  0.47992639  0.95576306  0.70287325    -0.33050
C2646       C  0.45862777  0.97322749  0.71205666     0.36010
H2647       H  0.41946486  0.92417018  0.74816905     0.16380
O2648       O  0.45568142  0.88645211  0.73051622    -0.60540
H2649       H  0.49687080  0.96541320  0.69086194     0.16390
O2650       O  0.46007896  0.00171994  0.70585479    -0.60640
H2651       H  0.47387273  0.00974017  0.71908457     0.43390
H2652       H  0.46611217  0.88402970  0.74821050     0.43340
C2653       C  0.35141321  0.05163412  0.85428999    -0.05720
C2654       C  0.32590722  0.05524323  0.86819611    -0.33150
C2655       C  0.32335402  0.07536202  0.88919913     0.36100
C2656       C  0.34646845  0.09306425  0.89611267    -0.06080
C2657       C  0.37174514  0.08996182  0.88140287    -0.33050
C2658       C  0.37434742  0.06944847  0.86073403     0.36010
H2659       H  0.30823672  0.04144638  0.86376967     0.16380
O2660       O  0.29821879  0.07698570  0.90312402    -0.60540
H2661       H  0.38971193  0.10325458  0.88606187     0.16390
O2662       O  0.39960618  0.06665635  0.84726087    -0.60640
H2663       H  0.39961883  0.08126900  0.83219336     0.43390
H2664       H  0.29955152  0.06315981  0.91882600     0.43340
C2665       C  0.36795220  0.93651246  0.87085809    -0.05720
C2666       C  0.39023169  0.93731447  0.88971132    -0.33150
C2667       C  0.38866856  0.92186907  0.91470312     0.36100
C2668       C  0.36473203  0.90503948  0.92071743    -0.06080
C2669       C  0.34217749  0.90503952  0.90217780    -0.33050
C2670       C  0.34363551  0.92055606  0.87740434     0.36010
H2671       H  0.40866112  0.95023602  0.88525297     0.16380
O2672       O  0.41080327  0.92295993  0.93279575    -0.60540
H2673       H  0.32383311  0.89183053  0.90611993     0.16390
O2674       O  0.32178010  0.91876033  0.85899318    -0.60640
H2675       H  0.30704485  0.93120276  0.86666788     0.43390
H2676       H  0.40562339  0.93741422  0.94673673     0.43340
C2677       C  0.29255772  0.99367739  0.72538698    -0.05720
C2678       C  0.26438839  0.98939693  0.73372152    -0.33150
C2679       C  0.24265847  0.98651970  0.71401271     0.36100
C2680       C  0.24860149  0.98762563  0.68501309    -0.06080
C2681       C  0.27676824  0.99186301  0.67678337    -0.33050
C2682       C  0.29840440  0.99478282  0.69637403     0.36010
H2683       H  0.25903769  0.98824693  0.75572589     0.16380
O2684       O  0.21575605  0.98232853  0.72350405    -0.60540
H2685       H  0.28228188  0.99308223  0.65481789     0.16390
O2686       O  0.32521725  0.99913391  0.68666450    -0.60640
H2687       H  0.33266482  0.97991062  0.68329612     0.43390
H2688       H  0.20839057  0.00160095  0.72677665     0.43340
C2689       C  0.56890460  0.10629873  0.73800651    -0.05720
C2690       C  0.59395071  0.09807097  0.72486446    -0.33150
C2691       C  0.60839443  0.07404827  0.73444699     0.36100
C2692       C  0.59723132  0.05794562  0.75684348    -0.06080
C2693       C  0.57443767  0.06847636  0.77196778    -0.33050
C2694       C  0.56043902  0.09258442  0.76288136     0.36010
H2695       H  0.60051573  0.10819756  0.70543578     0.16380
O2696       O  0.63153022  0.06494610  0.72015149    -0.60540
H2697       H  0.56651573  0.05732908  0.79023269     0.16390
O2698       O  0.53670927  0.10098200  0.77678030    -0.60640
H2699       H  0.52208471  0.08666187  0.77235146     0.43390
H2700       H  0.64770613  0.07385391  0.72966886     0.43340
C2701       C  0.62997163  0.92736356  0.74684056    -0.05720
C2702       C  0.61673448  0.90191174  0.75539671    -0.33150
C2703       C  0.60379936  0.88473009  0.73566145     0.36100
C2704       C  0.60503547  0.89311324  0.70745278    -0.06080
C2705       C  0.62558899  0.91315707  0.69899981    -0.33050
C2706       C  0.63729833  0.93129366  0.71864181     0.36010
H2707       H  0.61240064  0.89787041  0.77734525     0.16380
O2708       O  0.58666190  0.86279514  0.74443360    -0.60540
H2709       H  0.62818776  0.91868645  0.67708379     0.16390
O2710       O  0.65056723  0.95571506  0.70966098    -0.60640
H2711       H  0.66738096  0.94943784  0.69924058     0.43390
H2712       H  0.56962603  0.87181983  0.75212585     0.43340
C2713       C  0.66443737  0.95609906  0.88876420    -0.05720
C2714       C  0.68978060  0.94305824  0.89610932    -0.33150
C2715       C  0.69061530  0.92257542  0.91764978     0.36100
C2716       C  0.66582983  0.91490904  0.93225856    -0.06080
C2717       C  0.64040691  0.92676452  0.92367829    -0.33050
C2718       C  0.63946703  0.94685244  0.90224827     0.36010
H2719       H  0.70917124  0.94940351  0.88583553     0.16380
O2720       O  0.71580524  0.91074918  0.92453963    -0.60540
H2721       H  0.62086592  0.92076241  0.93388936     0.16390
O2722       O  0.61387774  0.95784736  0.89536619    -0.60640
H2723       H  0.60693698  0.94595280  0.87988619     0.43390
H2724       H  0.72418692  0.92374417  0.93837929     0.43340
C2725       C  0.65636802  0.07409161  0.90079316    -0.05720
C2726       C  0.67504477  0.09717776  0.90073470    -0.33150
C2727       C  0.67233629  0.11835360  0.92066737     0.36100
C2728       C  0.65075464  0.11620687  0.94082428    -0.06080
C2729       C  0.63346003  0.09191632  0.94181509    -0.33050
C2730       C  0.63613626  0.07097328  0.92193145     0.36010
H2731       H  0.69074579  0.09950749  0.88438792     0.16380
O2732       O  0.68945414  0.14184251  0.91897692    -0.60540
H2733       H  0.61727358  0.08942529  0.95766242     0.16390
O2734       O  0.61836247  0.04792626  0.92280486    -0.60640
H2735       H  0.62891837  0.03282450  0.93260401     0.43390
H2736       H  0.70662615  0.13655420  0.92926535     0.43340
C2737       C  0.73329066  0.00898665  0.75955450    -0.05720
C2738       C  0.76072837  0.01829688  0.76562315    -0.33150
C2739       C  0.78140728  0.02075068  0.74435874     0.36100
C2740       C  0.77481186  0.01388821  0.71646817    -0.06080
C2741       C  0.74767776  0.00361773  0.71094510    -0.33050
C2742       C  0.72737793  0.00092280  0.73189244     0.36010
H2743       H  0.76596556  0.02444940  0.78668650     0.16380
O2744       O  0.80774865  0.03012501  0.75108996    -0.60540
H2745       H  0.74191872  0.99732480  0.69004797     0.16390
O2746       O  0.70163465  0.99016625  0.72485976    -0.60640
H2747       H  0.70211405  0.96995879  0.73078212     0.43390
H2748       H  0.80706174  0.05105827  0.74913258     0.43340
C2749       C  0.53774425  0.01561033  0.85455835    -0.05720
C2750       C  0.52169577  0.99035533  0.85553343    -0.33150
C2751       C  0.49271931  0.99046364  0.84992465     0.36100
C2752       C  0.47933171  0.01612717  0.84308126    -0.06080
C2753       C  0.49459342  0.04162256  0.84594558    -0.33050
C2754       C  0.52342303  0.04145843  0.85160176     0.36010
H2755       H  0.53220284  0.97014187  0.85705440     0.16380
O2756       O  0.47862017  0.96510414  0.84756407    -0.60540
H2757       H  0.48478885  0.06163609  0.84080340     0.16390
O2758       O  0.53811850  0.06650709  0.84992878    -0.60640
H2759       H  0.53974060  0.07288847  0.86950759     0.43390
H2760       H  0.48200460  0.95891940  0.82810813     0.43340
C2761       C  0.85337008  0.57147664  0.58828703    -0.05720
C2762       C  0.82822535  0.58338733  0.57896589    -0.33150
C2763       C  0.82826885  0.60305491  0.55688718     0.36100
C2764       C  0.85377829  0.61094254  0.54380454    -0.06080
C2765       C  0.87901580  0.60067550  0.55468419    -0.33050
C2766       C  0.87897313  0.58105536  0.57664915     0.36010
H2767       H  0.80833592  0.57623862  0.58768034     0.16380
O2768       O  0.80316253  0.61274159  0.54704407    -0.60540
H2769       H  0.89895077  0.60725053  0.54563545     0.16390
O2770       O  0.90406984  0.57122301  0.58648009    -0.60640
H2771       H  0.91051807  0.55731929  0.57250741     0.43390
H2772       H  0.79860846  0.62923849  0.55883135     0.43340
C2773       C  0.83631812  0.44968908  0.57634161    -0.05720
C2774       C  0.84075681  0.42115102  0.58317523    -0.33150
C2775       C  0.83393508  0.40005883  0.56423038     0.36100
C2776       C  0.82346433  0.40775882  0.53790790    -0.06080
C2777       C  0.81650663  0.43605493  0.53220092    -0.33050
C2778       C  0.82286275  0.45709600  0.55134184     0.36010
H2779       H  0.85038577  0.41532803  0.60283486     0.16380
O2780       O  0.84128781  0.37258528  0.57002900    -0.60540
H2781       H  0.80885960  0.44216111  0.51174583     0.16390
O2782       O  0.81785350  0.48492911  0.54454611    -0.60640
H2783       H  0.83539526  0.49201365  0.53556066     0.43390
H2784       H  0.82393343  0.36336515  0.57733444     0.43340
C2785       C  0.78692344  0.52169301  0.71833933    -0.05720
C2786       C  0.76020195  0.53264050  0.71239371    -0.33150
C2787       C  0.73818427  0.53113070  0.73217314     0.36100
C2788       C  0.74247992  0.51858740  0.75872075    -0.06080
C2789       C  0.76924804  0.50782575  0.76465198    -0.33050
C2790       C  0.79109732  0.50903806  0.74486378     0.36010
H2791       H  0.75626291  0.54242513  0.69223801     0.16380
O2792       O  0.71283266  0.54274657  0.72553225    -0.60540
H2793       H  0.77323955  0.49778142  0.78467971     0.16390
O2794       O  0.81627260  0.49704686  0.75157750    -0.60640
H2795       H  0.81474206  0.47708207  0.74544331     0.43390
H2796       H  0.70279897  0.52790840  0.71490491     0.43340
C2797       C  0.16201085  0.56338433  0.57337547    -0.05720
C2798       C  0.13848680  0.58024833  0.56870852    -0.33150
C2799       C  0.13788559  0.59941139  0.54625258     0.36100
C2800       C  0.16101178  0.60179002  0.52781073    -0.06080
C2801       C  0.18567565  0.58718831  0.53420082    -0.33050
C2802       C  0.18627624  0.56795978  0.55683889     0.36010
H2803       H  0.11989866  0.57745721  0.58161914     0.16380
O2804       O  0.11405728  0.61481572  0.54161500    -0.60540
H2805       H  0.20357147  0.58863663  0.52019816     0.16390
O2806       O  0.20978638  0.55202040  0.56105821    -0.60640
H2807       H  0.20715217  0.53494406  0.54943476     0.43390
H2808       H  0.10007414  0.60112554  0.53432286     0.43340
C2809       C  0.15359938  0.44135393  0.56150033    -0.05720
C2810       C  0.13709257  0.41700615  0.56591985    -0.33150
C2811       C  0.13601759  0.39594146  0.54607889     0.36100
C2812       C  0.15165985  0.39902673  0.52121549    -0.06080
C2813       C  0.16919277  0.42282062  0.51715315    -0.33050
C2814       C  0.17031914  0.44401650  0.53728249     0.36010
H2815       H  0.12484907  0.41425167  0.58493327     0.16380
O2816       O  0.12036908  0.37192585  0.55164349    -0.60540
H2817       H  0.18147780  0.42527796  0.49814924     0.16390
O2818       O  0.18653216  0.46775985  0.53243821    -0.60640
H2819       H  0.20557612  0.46257536  0.53873638     0.43390
H2820       H  0.10071041  0.37724508  0.54775344     0.43340
C2821       C  0.22170793  0.50805037  0.70381605    -0.05720
C2822       C  0.21356917  0.50916595  0.73212599    -0.33150
C2823       C  0.23257040  0.50397268  0.75396892     0.36100
C2824       C  0.26094644  0.49720535  0.74829895    -0.06080
C2825       C  0.26931073  0.49654065  0.72001012    -0.33050
C2826       C  0.25014389  0.50160585  0.69806348     0.36010
H2827       H  0.19205696  0.51381582  0.73759629     0.16380
O2828       O  0.22286255  0.50557988  0.78092646    -0.60540
H2829       H  0.29083914  0.49176817  0.71473980     0.16390
O2830       O  0.25964267  0.50017895  0.67103951    -0.60640
H2831       H  0.25852892  0.47980047  0.66625662     0.43390
H2832       H  0.22558967  0.52568518  0.78620051     0.43340
C2833       C  0.03157065  0.49281145  0.59803617    -0.05720
C2834       C  0.01607710  0.51734049  0.59174789    -0.33150
C2835       C  0.98641800  0.51745051  0.59375292     0.36100
C2836       C  0.97142298  0.49276961  0.60219411    -0.06080
C2837       C  0.98674391  0.46760120  0.60545948    -0.33050
C2838       C  0.01630168  0.46748612  0.60348952     0.36010
H2839       H  0.02707025  0.53732529  0.58850003     0.16380
O2840       O  0.97273838  0.54276368  0.59134669    -0.60540
H2841       H  0.97600045  0.44844946  0.61251838     0.16390
O2842       O  0.03030152  0.44298166  0.60979348    -0.60640
H2843       H  0.02982311  0.44136850  0.63046327     0.43390
H2844       H  0.96686095  0.54393220  0.57155035     0.43340
C2845       C  0.07013217  0.40537177  0.71746994    -0.05720
C2846       C  0.08998089  0.41875648  0.73455898    -0.33150
C2847       C  0.10238775  0.44438941  0.72587849     0.36100
C2848       C  0.09496154  0.45593481  0.69992802    -0.06080
C2849       C  0.07968182  0.43953961  0.68098632    -0.33050
C2850       C  0.06749567  0.41400280  0.68956109     0.36010
H2851       H  0.09220653  0.41205387  0.75616026     0.16380
O2852       O  0.11850377  0.45956093  0.74409953    -0.60540
H2853       H  0.07525779  0.44764709  0.66025737     0.16390
O2854       O  0.04867359  0.40075674  0.67242430    -0.60640
H2855       H  0.05940565  0.38546554  0.66336123     0.43390
H2856       H  0.13810517  0.45453385  0.73948851     0.43340
C2857       C  0.94074774  0.41246140  0.73970610    -0.05720
C2858       C  0.93718901  0.41174715  0.71081467    -0.33150
C2859       C  0.92140407  0.43282677  0.69794464     0.36100
C2860       C  0.90866948  0.45362781  0.71446868    -0.06080
C2861       C  0.90682059  0.44995983  0.74337017    -0.33050
C2862       C  0.92249745  0.42877375  0.75617108     0.36010
H2863       H  0.95040699  0.39851558  0.69801035     0.16380
O2864       O  0.92141772  0.43522660  0.66932436    -0.60540
H2865       H  0.89643262  0.46558480  0.75610231     0.16390
O2866       O  0.92416168  0.42795541  0.78475453    -0.60640
H2867       H  0.91261957  0.41130477  0.79060303     0.43390
H2868       H  0.94091272  0.44042264  0.66390795     0.43340
C2869       C  0.92913543  0.36136052  0.87060290    -0.05720
C2870       C  0.93365659  0.34208341  0.89273813    -0.33150
C2871       C  0.91713682  0.34281531  0.91684185     0.36100
C2872       C  0.89583650  0.36300827  0.91893225    -0.06080
C2873       C  0.89144401  0.38232986  0.89699107    -0.33050
C2874       C  0.90778340  0.38159442  0.87291100     0.36010
H2875       H  0.95022555  0.32660192  0.89154071     0.16380
O2876       O  0.92200292  0.32384186  0.93816022    -0.60540
H2877       H  0.87460844  0.39754481  0.89810246     0.16390
O2878       O  0.90182671  0.39990254  0.85131796    -0.60640
H2879       H  0.91090074  0.41814074  0.85631487     0.43390
H2880       H  0.93446985  0.33401490  0.95124927     0.43340
C2881       C  0.04564615  0.35576656  0.85759381    -0.05720
C2882       C  0.06054771  0.33094278  0.86309346    -0.33150
C2883       C  0.08169855  0.33064999  0.88303890     0.36100
C2884       C  0.08842107  0.35557131  0.89777073    -0.06080
C2885       C  0.07474223  0.38079546  0.89114575    -0.33050
C2886       C  0.05354888  0.38111986  0.87124438     0.36010
H2887       H  0.05532380  0.31142641  0.85252941     0.16380
O2888       O  0.09597997  0.30594114  0.88768261    -0.60540
H2889       H  0.07984582  0.40016249  0.90203771     0.16390
O2890       O  0.04028601  0.40626886  0.86594339    -0.60640
H2891       H  0.05079084  0.41510787  0.85010589     0.43390
H2892       H  0.08334835  0.29400010  0.89953926     0.43340
C2893       C  0.99898848  0.28431831  0.72959237    -0.05720
C2894       C  0.00023290  0.25534820  0.73711443    -0.33150
C2895       C  0.00013746  0.23377118  0.71673199     0.36100
C2896       C  0.99849085  0.24060831  0.68782677    -0.06080
C2897       C  0.99705734  0.26953369  0.68045699    -0.33050
C2898       C  0.99714639  0.29099225  0.70066503     0.36010
H2899       H  0.00148997  0.24928187  0.75895286     0.16380
O2900       O  0.00163580  0.20605685  0.72549913    -0.60540
H2901       H  0.99571580  0.27580236  0.65867393     0.16390
O2902       O  0.99533987  0.31859539  0.69158158    -0.60640
H2903       H  0.97498516  0.32250446  0.69067751     0.43390
H2904       H  0.02194602  0.20208002  0.72686822     0.43340
C2905       C  0.08345515  0.62870568  0.74580604    -0.05720
C2906       C  0.07383020  0.63087567  0.71841010    -0.33150
C2907       C  0.08455763  0.61292532  0.69820531     0.36100
C2908       C  0.10547142  0.59314328  0.70560236    -0.06080
C2909       C  0.11938915  0.59606725  0.73102555    -0.33050
C2910       C  0.10858765  0.61422685  0.75116899     0.36010
H2911       H  0.05488929  0.64250033  0.71381609     0.16380
O2912       O  0.07157284  0.61191175  0.67273604    -0.60540
H2913       H  0.13613780  0.58180669  0.73666296     0.16390
O2914       O  0.11952908  0.61363276  0.77755669    -0.60640
H2915       H  0.13160514  0.63081099  0.77853256     0.43390
H2916       H  0.08362835  0.62347343  0.65998561     0.43340
C2917       C  0.95764737  0.60845179  0.75599085    -0.05720
C2918       C  0.94364895  0.58509650  0.76823697    -0.33150
C2919       C  0.92142934  0.57205398  0.75457126     0.36100
C2920       C  0.91382118  0.58194657  0.72799158    -0.06080
C2921       C  0.92495018  0.60781480  0.71781433    -0.33050
C2922       C  0.94685529  0.62126130  0.73186365     0.36010
H2923       H  0.95121611  0.57566903  0.78742632     0.16380
O2924       O  0.91095165  0.54679516  0.76485116    -0.60540
H2925       H  0.91935148  0.61542358  0.69716466     0.16390
O2926       O  0.95984070  0.64452994  0.71998619    -0.60640
H2927       H  0.95063479  0.66106587  0.72858778     0.43390
H2928       H  0.89341226  0.55178030  0.77476714     0.43340
C2929       C  0.06127548  0.66406758  0.89192283    -0.05720
C2930       C  0.06059990  0.64396215  0.91369029    -0.33150
C2931       C  0.08234705  0.64194402  0.93282355     0.36100
C2932       C  0.10618124  0.65991679  0.93044500    -0.06080
C2933       C  0.10696286  0.68033004  0.90875313    -0.33050
C2934       C  0.08480013  0.68241702  0.88950507     0.36010
H2935       H  0.04269367  0.62987312  0.91644063     0.16380
O2936       O  0.07964869  0.62248740  0.95421879    -0.60540
H2937       H  0.12490374  0.69442486  0.90647385     0.16390
O2938       O  0.08655242  0.70221462  0.86835067    -0.60640
H2939       H  0.09505960  0.69214334  0.85237968     0.43390
H2940       H  0.06668672  0.63127070  0.96779334     0.43340
C2941       C  0.94232006  0.66240129  0.90711706    -0.05720
C2942       C  0.92628412  0.68700767  0.90993949    -0.33150
C2943       C  0.90646469  0.68928199  0.93138409     0.36100
C2944       C  0.90268273  0.66677936  0.95072517    -0.06080
C2945       C  0.91944000  0.64245616  0.94817998    -0.33050
C2946       C  0.93888600  0.64006989  0.92645520     0.36010
H2947       H  0.92869144  0.70434115  0.89502453     0.16380
O2948       O  0.89029772  0.71311935  0.93249856    -0.60540
H2949       H  0.91721718  0.62484579  0.96278387     0.16390
O2950       O  0.95509395  0.61627621  0.92487359    -0.60640
H2951       H  0.94335772  0.60206000  0.91515616     0.43390
H2952       H  0.90118198  0.72676823  0.94381059     0.43340
C2953       C  0.01421936  0.74243309  0.76787211    -0.05720
C2954       C  0.03211122  0.74010156  0.74466369    -0.33150
C2955       C  0.03204366  0.76025241  0.72285465     0.36100
C2956       C  0.01338002  0.78335935  0.72316118    -0.06080
C2957       C  0.99645289  0.78674204  0.74708682    -0.33050
C2958       C  0.99711143  0.76674921  0.76950290     0.36010
H2959       H  0.04550804  0.72178960  0.74282551     0.16380
O2960       O  0.04848448  0.75557140  0.69978028    -0.60540
H2961       H  0.98122758  0.80360475  0.74753137     0.16390
O2962       O  0.97891397  0.76970937  0.79151181    -0.60640
H2963       H  0.98921116  0.78138822  0.80521149     0.43390
H2964       H  0.06553004  0.76736469  0.70252236     0.43340
C2965       C  0.99294660  0.53843303  0.85219718    -0.05720
C2966       C  0.01810619  0.52325594  0.85446147    -0.33150
C2967       C  0.01935174  0.49395945  0.84854287     0.36100
C2968       C  0.99513975  0.47866143  0.84043504    -0.06080
C2969       C  0.96946551  0.49313489  0.84096123    -0.33050
C2970       C  0.96830649  0.52259000  0.84647879     0.36010
H2971       H  0.03754040  0.53476442  0.85774332     0.16380
O2972       O  0.04499808  0.48114525  0.84786220    -0.60540
H2973       H  0.95062538  0.48234260  0.83412437     0.16390
O2974       O  0.94341776  0.53636260  0.84282784    -0.60640
H2975       H  0.93498862  0.53735614  0.86176855     0.43390
H2976       H  0.04698558  0.47203708  0.86650393     0.43340
loop_ 
_geom_bond_atom_site_label_1 
_geom_bond_atom_site_label_2 
_geom_bond_distance 
_geom_bond_site_symmetry_2 
_ccdc_geom_bond_type 
O1           Ni7   1.903   1_655  S
O1           C22   1.259       .  A
O2          Ni25   1.909       .  S
O2           C11   1.272       .  A
O3           Ni7   1.883       .  S
O3          Ni25   1.900       .  S
O3          Ni19   1.897   1_455  S
O3           H26   0.966       .  S
C4           O21   1.278       .  A
C4           O13   1.280       .  A
C4         C2941   1.468       .  S
O5          Ni24   1.970   1_455  S
O5           C11   1.282       .  A
O6          Ni24   1.925   1_455  S
O6            C8   1.278       .  A
Ni7          O10   1.895       .  S
Ni7          O12   1.904       .  S
C8           O18   1.282       .  A
C8         C2929   1.488       .  S
O9          Ni25   1.932       .  S
O9           C15   1.279       .  A
O10          C15   1.273       .  A
C11        C2953   1.505       .  S
O12          C14   1.267   1_455  A
O13         Ni24   1.936       .  S
C14          O20   1.263       .  A
C14        C2917   1.460       .  S
C15        C2905   1.461       .  S
H16          O17   0.967       .  S
O17         Ni25   1.907   1_655  S
O17         Ni19   1.932       .  S
O17         Ni24   1.895       .  S
O18         Ni19   1.937   1_455  S
Ni19         O23   1.991       .  S
Ni19         O21   1.902       .  S
O20         Ni25   1.911   1_655  S
C22          O23   1.289       .  A
C22        C2965   1.507       .  S
O27         Ni33   1.980       .  S
O27          C48   1.285       .  A
O28         Ni51   1.979       .  S
O28          C37   1.287       .  A
O29         Ni33   1.897       .  S
O29         Ni51   1.924       .  S
O29         Ni45   1.883   1_655  S
O29          H52   0.966       .  S
C30          O47   1.256       .  A
C30          O39   1.259       .  A
C30        C2845   1.446       .  S
O31         Ni50   1.915       .  S
O31          C37   1.269   1_455  A
O32         Ni50   1.884   1_655  S
O32          C34   1.273       .  A
Ni33         O36   1.941       .  S
Ni33         O38   1.924   1_655  S
C34          O44   1.283       .  A
C34        C2857   1.457       .  S
O35         Ni51   1.883       .  S
O35          C41   1.272       .  A
O36          C41   1.281       .  A
C37        C2968   1.511       .  S
O38          C40   1.280       .  A
O39         Ni50   1.905       .  S
C40          O46   1.272       .  A
C40        C2881   1.476       .  S
C41        C2869   1.467       .  S
H42          O43   0.966       .  S
O43         Ni51   1.922   1_455  S
O43         Ni45   1.928       .  S
O43         Ni50   1.901       .  S
O44         Ni45   1.953   1_655  S
Ni45         O49   1.905       .  S
Ni45         O47   1.909       .  S
O46         Ni51   1.915   1_455  S
C48          O49   1.268   1_655  A
C48        C2893   1.520       .  S
O53         Ni59   1.906       .  S
O53          C74   1.259       .  A
O54         Ni77   1.923       .  S
O54          C63   1.275       .  A
O55         Ni59   1.899       .  S
O55         Ni77   1.912       .  S
O55         Ni71   1.880       .  S
O55          H78   0.966       .  S
C56          O73   1.267       .  A
C56          O65   1.276       .  A
C56        C2809   1.458       .  S
O57         Ni76   1.960       .  S
O57          C63   1.281       .  A
O58         Ni76   1.912       .  S
O58          C60   1.277       .  A
Ni59         O62   1.883       .  S
Ni59         O64   1.894       .  S
C60          O70   1.285       .  A
C60        C2797   1.477       .  S
O61         Ni77   1.938       .  S
O61          C67   1.284       .  A
O62          C67   1.272       .  A
C63        C2821   1.520       .  S
O64          C66   1.263       .  A
O65         Ni76   1.940       .  S
C66          O72   1.258       .  A
C66        C2848   1.455       .  S
C67        C2908   1.470       .  S
H68          O69   0.966       .  S
O69         Ni77   1.918       .  S
O69         Ni71   1.926       .  S
O69         Ni76   1.905       .  S
O70         Ni71   1.947       .  S
Ni71         O75   1.980       .  S
Ni71         O73   1.871       .  S
O72         Ni77   1.903       .  S
C74          O75   1.283       .  A
C74        C2833   1.503       .  S
O79         Ni85   1.946       .  S
O79         C100   1.276       .  A
O80        Ni103   1.979       .  S
O80          C89   1.281       .  A
O81         Ni85   1.905       .  S
O81        Ni103   1.927       .  S
O81         Ni97   1.902       .  S
O81         H104   0.966       .  S
C82          O99   1.276       .  A
C82          O91   1.270       .  A
C82        C2920   1.453       .  S
O83        Ni102   1.907       .  S
O83          C89   1.259       .  A
O84        Ni102   1.895       .  S
O84          C86   1.266       .  A
Ni85         O88   1.925       .  S
Ni85         O90   1.905       .  S
C86          O96   1.260       .  A
C86        C2860   1.451       .  S
O87        Ni103   1.894       .  S
O87          C93   1.274       .  A
O88          C93   1.274       .  A
C89        C2836   1.504       .  S
O90          C92   1.272       .  A
O91        Ni102   1.888       .  S
C92          O98   1.275       .  A
C92        C2761   1.470       .  S
C93        C2773   1.453       .  S
H94          O95   0.966       .  S
O95        Ni103   1.898       .  S
O95         Ni97   1.923       .  S
O95        Ni102   1.901       .  S
O96         Ni97   1.903       .  S
Ni97        O101   1.916       .  S
Ni97         O99   1.927       .  S
O98        Ni103   1.926       .  S
C100        O101   1.272       .  A
C100       C2785   1.502       .  S
O105       Ni111   1.898   1_545  S
O105        C126   1.260       .  A
O106       Ni129   1.886   1_545  S
O106        C115   1.266       .  A
O107       Ni111   1.888       .  S
O107       Ni129   1.900       .  S
O107       Ni123   1.896   1_565  S
O107        H130   0.966       .  S
C108        O125   1.275       .  A
C108        O117   1.280       .  A
C108       C2725   1.450       .  S
O109       Ni128   1.970       .  S
O109        C115   1.283       .  A
O110       Ni128   1.926   1_565  S
O110        C112   1.277       .  A
Ni111       O114   1.893       .  S
Ni111       O116   1.911   1_565  S
C112        O122   1.273       .  A
C112       C2713   1.486       .  S
O113       Ni129   1.927       .  S
O113        C119   1.276       .  A
O114        C119   1.272       .  A
C115       C2737   1.499       .  S
O116        C118   1.268       .  A
O117       Ni128   1.936       .  S
C118        O124   1.263       .  A
C118       C2692   1.470       .  S
C119       C2701   1.464       .  S
H120        O121   0.966       .  S
O121       Ni129   1.891   1_545  S
O121       Ni123   1.918       .  S
O121       Ni128   1.898       .  S
O122       Ni123   1.919   1_565  S
Ni123       O127   1.969       .  S
Ni123       O125   1.881       .  S
O124       Ni129   1.914   1_545  S
C126        O127   1.282       .  A
C126       C2749   1.488       .  S
O131       Ni137   1.917       .  S
O131        C152   1.271       .  A
O132       Ni155   1.913   1_565  S
O132        C141   1.269       .  A
O133       Ni137   1.893       .  S
O133       Ni155   1.931       .  S
O133       Ni149   1.928   1_545  S
O133        H156   0.954       .  S
C134        O151   1.277       .  A
C134        O143   1.276       .  A
C134       C2665   1.459       .  S
O135       Ni154   1.960       .  S
O135        C141   1.279       .  A
O136       Ni154   1.924   1_545  S
O136        C138   1.278       .  A
Ni137       O140   1.908       .  S
Ni137       O142   1.887   1_545  S
C138        O148   1.275       .  A
C138       C2653   1.472       .  S
O139       Ni155   1.905       .  S
O139        C145   1.253       .  A
O140        C145   1.259       .  A
C141       C2677   1.511       .  S
O142        C144   1.271       .  A
O143       Ni154   1.917       .  S
C144        O150   1.290       .  A
C144       C2641   1.466       .  S
C145       C2629   1.449       .  S
H146        O147   0.968       .  S
O147       Ni155   1.875   1_565  S
O147       Ni149   1.926       .  S
O147       Ni154   1.908       .  S
O148       Ni149   1.927   1_545  S
Ni149       O153   1.969       .  S
Ni149       O151   1.898       .  S
O150       Ni155   1.981   1_565  S
C152        O153   1.283   1_545  A
C152       C2752   1.497       .  S
O157       Ni163   1.953       .  S
O157        C178   1.276       .  A
O158       Ni181   1.962       .  S
O158        C167   1.282       .  A
O159       Ni163   1.906       .  S
O159       Ni181   1.928       .  S
O159       Ni175   1.907       .  S
O159        H182   0.966       .  S
C160        O177   1.266       .  A
C160        O169   1.257       .  A
C160       C2689   1.463       .  S
O161       Ni180   1.914       .  S
O161        C167   1.268       .  A
O162       Ni180   1.889       .  S
O162        C164   1.272       .  A
Ni163       O166   1.939       .  S
Ni163       O168   1.897       .  S
C164        O174   1.279       .  A
C164       C2632   1.458       .  S
O165       Ni181   1.880       .  S
O165        C171   1.266       .  A
O166        C171   1.275       .  A
C167       C2617   1.499       .  S
O168        C170   1.273       .  A
O169       Ni180   1.902       .  S
C170        O176   1.282       .  A
C170       C2581   1.472       .  S
C171       C2596   1.467       .  S
H172        O173   0.966       .  S
O173       Ni181   1.909       .  S
O173       Ni175   1.935       .  S
O173       Ni180   1.915       .  S
O174       Ni175   1.950       .  S
Ni175       O179   1.920       .  S
Ni175       O177   1.933       .  S
O176       Ni181   1.940       .  S
C178        O179   1.274       .  A
C178       C2608   1.501       .  S
O183       Ni189   1.903       .  S
O183        C204   1.262       .  A
O184       Ni207   1.914       .  S
O184        C193   1.275       .  A
O185       Ni189   1.864       .  S
O185       Ni207   1.888       .  S
O185       Ni201   1.889       .  S
O185        H208   0.965       .  S
C186        O203   1.277       .  A
C186        O195   1.282       .  A
C186       C2557   1.463       .  S
O187       Ni206   1.967       .  S
O187        C193   1.283       .  A
O188       Ni206   1.924       .  S
O188        C190   1.276       .  A
Ni189       O192   1.886       .  S
Ni189       O194   1.902       .  S
C190        O200   1.278       .  A
C190       C2548   1.486       .  S
O191       Ni207   1.946       .  S
O191        C197   1.288       .  A
O192        C197   1.276       .  A
C193       C2569   1.501       .  S
O194        C196   1.264       .  A
O195       Ni206   1.940       .  S
C196        O202   1.268       .  A
C196       C2644   1.482       .  S
C197       C2704   1.473       .  S
H198        O199   0.967       .  S
O199       Ni207   1.901       .  S
O199       Ni201   1.923       .  S
O199       Ni206   1.892       .  S
O200       Ni201   1.931       .  S
Ni201       O205   1.977       .  S
Ni201       O203   1.889       .  S
O202       Ni207   1.938       .  S
C204        O205   1.287       .  A
C204       C2620   1.496       .  S
O209       Ni215   1.959       .  S
O209        C230   1.281       .  A
O210       Ni233   1.957       .  S
O210        C219   1.277       .  A
O211       Ni215   1.904       .  S
O211       Ni233   1.920       .  S
O211       Ni227   1.890       .  S
O211        H234   0.966       .  S
C212        O229   1.271       .  A
C212        O221   1.273       .  A
C212       C2485   1.456       .  S
O213       Ni232   1.916   1_556  S
O213        C219   1.264       .  A
O214       Ni232   1.904   1_556  S
O214        C216   1.268       .  A
Ni215       O218   1.936       .  S
Ni215       O220   1.916   1_556  S
C216        O226   1.273       .  A
C216       C2497   1.474       .  S
O217       Ni233   1.874       .  S
O217        C223   1.269       .  A
O218        C223   1.281       .  A
C219       C2533   1.494       .  S
O220        C222   1.271       .  A
O221       Ni232   1.890       .  S
C222        O228   1.276       .  A
C222       C2509   1.479       .  S
C223       C2668   1.463       .  S
H224        O225   0.966       .  S
O225       Ni233   1.890   1_554  S
O225       Ni227   1.919   1_554  S
O225       Ni232   1.891       .  S
O226       Ni227   1.937       .  S
Ni227       O231   1.914       .  S
Ni227       O229   1.916   1_556  S
O228       Ni233   1.931   1_554  S
C230        O231   1.272       .  A
C230       C2521   1.509       .  S
O235       Ni241   1.973       .  S
O235        C256   1.284       .  A
O236       Ni259   1.971       .  S
O236        C245   1.282       .  A
O237       Ni241   1.899       .  S
O237       Ni259   1.924       .  S
O237       Ni253   1.901       .  S
O237        H260   0.966   1_556  S
C238        O255   1.275       .  A
C238        O247   1.274       .  A
C238       C2449   1.465       .  S
O239       Ni258   1.899       .  S
O239        C245   1.259       .  A
O240       Ni258   1.907       .  S
O240        C242   1.267       .  A
Ni241       O244   1.946   1_556  S
Ni241       O246   1.921       .  S
C242        O252   1.260       .  A
C242       C2437   1.473   1_556  S
O243       Ni259   1.881   1_554  S
O243        C249   1.272       .  A
O244        C249   1.282       .  A
C245       C2536   1.492       .  S
O246        C248   1.276       .  A
O247       Ni258   1.895       .  S
C248        O254   1.278       .  A
C248       C2716   1.484       .  S
C249       C2461   1.461       .  S
H250        O251   0.965       .  S
O251       Ni259   1.893       .  S
O251       Ni253   1.900       .  S
O251       Ni258   1.893       .  S
O252       Ni253   1.901       .  S
Ni253       O257   1.890       .  S
Ni253       O255   1.919       .  S
O254       Ni259   1.927       .  S
C256        O257   1.264       .  A
C256       C2473   1.507       .  S
O261       Ni267   1.902       .  S
O261        C282   1.257       .  A
O262       Ni285   1.911       .  S
O262        C271   1.273       .  A
O263       Ni267   1.894       .  S
O263       Ni285   1.910       .  S
O263       Ni279   1.884       .  S
O263        H286   0.966       .  S
C264        O281   1.266       .  A
C264        O273   1.280       .  A
C264       C2401   1.467       .  S
O265       Ni284   1.951       .  S
O265        C271   1.278       .  A
O266       Ni284   1.899       .  S
O266        C268   1.269       .  A
Ni267       O270   1.875       .  S
Ni267       O272   1.892       .  S
C268        O278   1.277       .  A
C268       C2389   1.467       .  S
O269       Ni285   1.941       .  S
O269        C275   1.282       .  A
O270        C275   1.271       .  A
C271       C2413   1.499       .  S
O272        C274   1.264       .  A
O273       Ni284   1.938       .  S
C274        O280   1.259       .  A
C274       C2488   1.462       .  S
C275       C2440   1.452       .  S
H276        O277   0.966       .  S
O277       Ni285   1.907       .  S
O277       Ni279   1.920       .  S
O277       Ni284   1.897       .  S
O278       Ni279   1.922       .  S
Ni279       O283   1.962       .  S
Ni279       O281   1.867       .  S
O280       Ni285   1.903       .  S
C282        O283   1.275       .  A
C282       C2428   1.490       .  S
O287       Ni293   1.977       .  S
O287        C308   1.286       .  A
O288       Ni311   1.953       .  S
O288        C297   1.279       .  A
O289       Ni293   1.895       .  S
O289       Ni311   1.913       .  S
O289       Ni305   1.886       .  S
O289        H312   0.967       .  S
C290        O307   1.276       .  A
C290        O299   1.275       .  A
C290       C2452   1.465       .  S
O291       Ni310   1.916       .  S
O291        C297   1.267       .  A
O292       Ni310   1.914       .  S
O292        C294   1.267       .  A
Ni293       O296   1.953       .  S
Ni293       O298   1.926       .  S
C294        O304   1.269       .  A
C294       C2500   1.472       .  S
O295       Ni311   1.877       .  S
O295        C301   1.275       .  A
O296        C301   1.286       .  A
C297       C2425   1.488       .  S
O298        C300   1.275       .  A
O299       Ni310   1.896       .  S
C300        O306   1.273       .  A
C300       C2365   1.488       .  S
C301       C2377   1.473       .  S
H302        O303   0.965       .  S
O303       Ni311   1.888       .  S
O303       Ni305   1.899       .  S
O303       Ni310   1.882       .  S
O304       Ni305   1.931       .  S
Ni305       O309   1.906       .  S
Ni305       O307   1.921       .  S
O306       Ni311   1.928       .  S
C308        O309   1.271       .  A
C308       C2572   1.503       .  S
O313       Ni319   1.901       .  S
O313        C334   1.267       .  A
O314       Ni337   1.909       .  S
O314        C323   1.269       .  A
O315       Ni319   1.904       .  S
O315       Ni337   1.920       .  S
O315       Ni331   1.936       .  S
O315        H338   0.965       .  S
C316        O333   1.278       .  A
C316        O325   1.272       .  A
C316       C2341   1.481       .  S
O317       Ni336   1.948   1_556  S
O317        C323   1.274       .  A
O318       Ni336   1.920   1_556  S
O318        C320   1.277       .  A
Ni319       O322   1.906       .  S
Ni319       O324   1.885       .  S
C320        O330   1.274       .  A
C320       C2944   1.481       .  S
O321       Ni337   1.905       .  S
O321        C327   1.256       .  A
O322        C327   1.264       .  A
C323       C2476   1.504       .  S
O324        C326   1.270       .  A
O325       Ni336   1.914       .  S
C326        O332   1.281       .  A
C326       C2317   1.456   1_556  S
C327       C2329   1.453       .  S
H328        O329   0.966   1_554  S
O329       Ni337   1.895       .  S
O329       Ni331   1.924       .  S
O329       Ni336   1.908   1_556  S
O330       Ni331   1.926       .  S
Ni331       O335   1.962       .  S
Ni331       O333   1.917   1_556  S
O332       Ni337   1.955       .  S
C334        O335   1.284       .  A
C334       C2353   1.498       .  S
O339       Ni345   1.902   1_556  S
O339        C360   1.261       .  A
O340       Ni363   1.886       .  S
O340        C349   1.265       .  A
O341       Ni345   1.897       .  S
O341       Ni363   1.920   1_554  S
O341       Ni357   1.901   1_554  S
O341        H364   0.966       .  S
C342        O359   1.276       .  A
C342        O351   1.285       .  A
C342       C2872   1.458       .  S
O343       Ni362   1.975       .  S
O343        C349   1.286       .  A
O344       Ni362   1.926   1_554  S
O344        C346   1.273       .  A
Ni345       O348   1.889       .  S
Ni345       O350   1.908   1_554  S
C346        O356   1.272       .  A
C346       C2293   1.481       .  S
O347       Ni363   1.909   1_554  S
O347        C353   1.266       .  A
O348        C353   1.270       .  A
C349       C2305   1.501       .  S
O350        C352   1.269       .  A
O351       Ni362   1.945       .  S
C352        O358   1.265       .  A
C352       C2281   1.465       .  S
C353       C2269   1.451       .  S
H354        O355   0.966       .  S
O355       Ni363   1.876       .  S
O355       Ni357   1.908       .  S
O355       Ni362   1.894       .  S
O356       Ni357   1.918   1_554  S
Ni357       O361   1.960       .  S
Ni357       O359   1.879       .  S
O358       Ni363   1.916       .  S
C360        O361   1.278       .  A
C360       C2356   1.489       .  S
O365       Ni371   1.921       .  S
O365        C386   1.272       .  A
O366       Ni389   1.924       .  S
O366        C375   1.271       .  A
O367       Ni371   1.908       .  S
O367       Ni389   1.914       .  S
O367       Ni383   1.910       .  S
O367        H390   0.966       .  S
C368        O385   1.269       .  A
C368        O377   1.268       .  A
C368       C2233   1.472       .  S
O369       Ni388   1.952       .  S
O369        C375   1.275       .  A
O370       Ni388   1.893       .  S
O370        C372   1.280       .  A
Ni371       O374   1.942       .  S
Ni371       O376   1.898       .  S
C372        O382   1.290       .  A
C372       C2392   1.463       .  S
O373       Ni389   1.888       .  S
O373        C379   1.265       .  A
O374        C379   1.278       .  A
C375       C2260   1.505       .  S
O376        C378   1.265       .  A
O377       Ni388   1.924       .  S
C378        O384   1.268       .  A
C378       C2272   1.472       .  S
C379       C2320   1.469       .  S
H380        O381   0.967       .  S
O381       Ni389   1.928       .  S
O381       Ni383   1.925       .  S
O381       Ni388   1.896       .  S
O382       Ni383   1.960       .  S
Ni383       O387   1.948       .  S
Ni383       O385   1.923       .  S
O384       Ni389   1.919       .  S
C386        O387   1.283       .  A
C386       C2248   1.492       .  S
O391       Ni397   1.906       .  S
O391        C412   1.265       .  A
O392       Ni415   1.895       .  S
O392        C401   1.268       .  A
O393       Ni397   1.876       .  S
O393       Ni415   1.889       .  S
O393       Ni409   1.902       .  S
O393        H416   0.965       .  S
C394        O411   1.282       .  A
C394        O403   1.281       .  A
C394       C2221   1.460       .  S
O395       Ni414   1.971       .  S
O395        C401   1.284       .  A
O396       Ni414   1.921       .  S
O396        C398   1.275       .  A
Ni397       O400   1.899       .  S
Ni397       O402   1.909       .  S
C398        O408   1.278       .  A
C398       C2368   1.485       .  S
O399       Ni415   1.927       .  S
O399        C405   1.277       .  A
O400        C405   1.276       .  A
C401       C2788   1.502       .  S
O402        C404   1.265       .  A
O403       Ni414   1.933       .  S
C404        O410   1.265       .  A
C404       C2284   1.461       .  S
C405       C2332   1.464       .  S
H406        O407   0.967       .  S
O407       Ni415   1.888       .  S
O407       Ni409   1.917       .  S
O407       Ni414   1.890       .  S
O408       Ni409   1.937       .  S
Ni409       O413   1.975       .  S
Ni409       O411   1.909       .  S
O410       Ni415   1.923       .  S
C412        O413   1.288       .  A
C412       C2257   1.496       .  S
O417       Ni423   1.910   1_655  S
O417        C438   1.265   1_655  A
O418       Ni441   1.916       .  S
O418        C427   1.266       .  A
O419       Ni423   1.904       .  S
O419       Ni441   1.895       .  S
O419       Ni435   1.871   1_455  S
O419        H442   0.966       .  S
C420        O437   1.267       .  A
C420        O429   1.259       .  A
C420       C2188   1.447       .  S
O421       Ni440   1.966       .  S
O421        C427   1.276   1_655  A
O422       Ni440   1.901   1_455  S
O422        C424   1.279       .  A
Ni423       O426   1.944       .  S
Ni423       O428   1.895   1_455  S
C424        O434   1.296       .  A
C424       C2197   1.475       .  S
O425       Ni441   1.845       .  S
O425        C431   1.262       .  A
O426        C431   1.280       .  A
C427       C2209   1.520       .  S
O428        C430   1.259       .  A
O429       Ni440   1.909       .  S
C430        O436   1.265       .  A
C430       C2173   1.474       .  S
C431       C2161   1.459       .  S
H432        O433   0.965       .  S
O433       Ni441   1.910   1_655  S
O433       Ni435   1.957       .  S
O433       Ni440   1.900       .  S
O434       Ni435   1.988   1_455  S
Ni435       O439   1.973   1_655  S
Ni435       O437   1.914       .  S
O436       Ni441   1.919   1_655  S
C438        O439   1.288       .  A
C438       C2956   1.499       .  S
O443       Ni449   1.918       .  S
O443        C464   1.269       .  A
O444       Ni467   1.903   1_655  S
O444        C453   1.272       .  A
O445       Ni449   1.869       .  S
O445       Ni467   1.905       .  S
O445       Ni461   1.899   1_455  S
O445        H468   0.964       .  S
C446        O463   1.277       .  A
C446        O455   1.284       .  A
C446       C2137   1.460       .  S
O447       Ni466   1.974   1_455  S
O447        C453   1.283   1_455  A
O448       Ni466   1.914   1_455  S
O448        C450   1.274       .  A
Ni449       O452   1.897       .  S
Ni449       O454   1.907       .  S
C450        O460   1.271       .  A
C450       C2125   1.467       .  S
O451       Ni467   1.928       .  S
O451        C457   1.274       .  A
O452        C457   1.273       .  A
C453       C2149   1.499       .  S
O454        C456   1.267   1_455  A
O455       Ni466   1.939       .  S
C456        O462   1.264       .  A
C456       C2116   1.451       .  S
C457       C2101   1.451       .  S
H458        O459   0.967       .  S
O459       Ni467   1.885   1_655  S
O459       Ni461   1.921       .  S
O459       Ni466   1.881       .  S
O460       Ni461   1.920   1_455  S
Ni461       O465   1.976       .  S
Ni461       O463   1.884       .  S
O462       Ni467   1.905   1_655  S
C464        O465   1.285   1_455  A
C464       C2212   1.511       .  S
O469       Ni475   1.894       .  S
O469        C490   1.257       .  A
O470       Ni493   1.913       .  S
O470        C479   1.264       .  A
O471       Ni475   1.890       .  S
O471       Ni493   1.889       .  S
O471       Ni487   1.874       .  S
O471        H494   0.967       .  S
C472        O489   1.265       .  A
C472        O481   1.270       .  A
C472       C2065   1.466       .  S
O473       Ni492   1.974       .  S
O473        C479   1.279       .  A
O474       Ni492   1.893       .  S
O474        C476   1.279       .  A
Ni475       O478   1.924       .  S
Ni475       O480   1.878       .  S
C476        O486   1.296       .  A
C476       C2800   1.478       .  S
O477       Ni493   1.867       .  S
O477        C483   1.268       .  A
O478        C483   1.280       .  A
C479       C2092   1.511       .  S
O480        C482   1.256       .  A
O481       Ni492   1.933       .  S
C482        O488   1.265       .  A
C482       C2104   1.474       .  S
C483       C2164   1.459       .  S
H484        O485   0.965       .  S
O485       Ni493   1.929       .  S
O485       Ni487   1.950       .  S
O485       Ni492   1.898       .  S
O486       Ni487   1.981       .  S
Ni487       O491   1.982       .  S
Ni487       O489   1.904       .  S
O488       Ni493   1.919       .  S
C490        O491   1.285       .  A
C490       C2080   1.500       .  S
O495       Ni501   1.915       .  S
O495        C516   1.268       .  A
O496       Ni519   1.909       .  S
O496        C505   1.274       .  A
O497       Ni501   1.888       .  S
O497       Ni519   1.929       .  S
O497       Ni513   1.914       .  S
O497        H520   0.964       .  S
C498        O515   1.277       .  A
C498        O507   1.282       .  A
C498       C2041   1.475       .  S
O499       Ni518   1.965       .  S
O499        C505   1.282       .  A
O500       Ni518   1.909       .  S
O500        C502   1.272       .  A
Ni501       O504   1.894       .  S
Ni501       O506   1.910       .  S
C502        O512   1.277       .  A
C502       C2764   1.474       .  S
O503       Ni519   1.914       .  S
O503        C509   1.265       .  A
O504        C509   1.267       .  A
C505       C2053   1.509       .  S
O506        C508   1.273       .  A
O507       Ni518   1.938       .  S
C508        O514   1.268       .  A
C508       C2113   1.456       .  S
C509       C2176   1.453       .  S
H510        O511   0.966       .  S
O511       Ni519   1.884       .  S
O511       Ni513   1.916       .  S
O511       Ni518   1.884       .  S
O512       Ni513   1.930       .  S
Ni513       O517   1.970       .  S
Ni513       O515   1.896       .  S
O514       Ni519   1.905       .  S
C516        O517   1.285       .  A
C516       C2089   1.508       .  S
O521       Ni527   1.894       .  S
O521        C542   1.267       .  A
O522       Ni545   1.882       .  S
O522        C531   1.264       .  A
O523       Ni527   1.909       .  S
O523       Ni545   1.936       .  S
O523       Ni539   1.929   1_545  S
O523        H546   0.965       .  S
C524        O541   1.280       .  A
C524        O533   1.277       .  A
C524       C2185   1.453       .  S
O525       Ni544   1.968       .  S
O525        C531   1.280       .  A
O526       Ni544   1.933       .  S
O526        C528   1.279       .  A
Ni527       O530   1.887       .  S
Ni527       O532   1.886   1_545  S
C528        O538   1.273       .  A
C528       C2017   1.489       .  S
O529       Ni545   1.906       .  S
O529        C535   1.249       .  A
O530        C535   1.257       .  A
C531       C2740   1.500       .  S
O532        C534   1.272       .  A
O533       Ni544   1.919   1_565  S
C534        O540   1.286       .  A
C534       C2005   1.475       .  S
C535       C1993   1.458       .  S
H536        O537   0.967       .  S
O537       Ni545   1.864   1_565  S
O537       Ni539   1.914       .  S
O537       Ni544   1.901   1_565  S
O538       Ni539   1.917   1_545  S
Ni539       O543   1.977   1_565  S
Ni539       O541   1.907       .  S
O540       Ni545   1.962   1_565  S
C542        O543   1.288       .  A
C542       C2032   1.495       .  S
O547       Ni553   1.959   1_545  S
O547        C568   1.279       .  A
O548       Ni571   1.966   1_545  S
O548        C557   1.284       .  A
O549       Ni553   1.897       .  S
O549       Ni571   1.917       .  S
O549       Ni565   1.875   1_565  S
O549        H572   0.966       .  S
C550        O567   1.254       .  A
C550        O559   1.254       .  A
C550       C1948   1.451       .  S
O551       Ni570   1.906       .  S
O551        C557   1.269       .  A
O552       Ni570   1.881   1_565  S
O552        C554   1.272       .  A
Ni553       O556   1.932       .  S
Ni553       O558   1.912   1_565  S
C554        O564   1.287       .  A
C554       C1957   1.466       .  S
O555       Ni571   1.884       .  S
O555        C561   1.272       .  A
O556        C561   1.280       .  A
C557       C2029   1.497       .  S
O558        C560   1.273       .  A
O559       Ni570   1.895       .  S
C560        O566   1.278       .  A
C560       C1972   1.476       .  S
C561       C2140   1.459       .  S
H562        O563   0.966       .  S
O563       Ni571   1.919   1_545  S
O563       Ni565   1.932       .  S
O563       Ni570   1.908       .  S
O564       Ni565   1.970   1_565  S
Ni565       O569   1.894       .  S
Ni565       O567   1.917       .  S
O566       Ni571   1.928   1_545  S
C568        O569   1.267       .  A
C568       C1984   1.497       .  S
O573       Ni579   1.916       .  S
O573        C594   1.264       .  A
O574       Ni597   1.893       .  S
O574        C583   1.265       .  A
O575       Ni579   1.902       .  S
O575       Ni597   1.912       .  S
O575       Ni591   1.887       .  S
O575        H598   0.966       .  S
C576        O593   1.267       .  A
C576        O585   1.275       .  A
C576       C1909   1.458       .  S
O577       Ni596   1.959       .  S
O577        C583   1.276       .  A
O578       Ni596   1.908       .  S
O578        C580   1.275       .  A
Ni579       O582   1.893       .  S
Ni579       O584   1.890       .  S
C580        O590   1.279       .  A
C580       C2584   1.472       .  S
O581       Ni597   1.911       .  S
O581        C587   1.270       .  A
O582        C587   1.274       .  A
C583       C1921   1.494       .  S
O584        C586   1.263       .  A
O585       Ni596   1.932       .  S
C586        O592   1.261       .  A
C586       C1945   1.451       .  S
C587       C1996   1.450       .  S
H588        O589   0.966       .  S
O589       Ni597   1.908       .  S
O589       Ni591   1.928       .  S
O589       Ni596   1.912       .  S
O590       Ni591   1.931       .  S
Ni591       O595   1.959       .  S
Ni591       O593   1.877       .  S
O592       Ni597   1.906       .  S
C594        O595   1.278       .  A
C594       C1936   1.494       .  S
O599       Ni605   1.972       .  S
O599        C620   1.284       .  A
O600       Ni623   1.966       .  S
O600        C609   1.277       .  A
O601       Ni605   1.909       .  S
O601       Ni623   1.922       .  S
O601       Ni617   1.907       .  S
O601        H624   0.966       .  S
C602        O619   1.278       .  A
C602        O611   1.272       .  A
C602       C2008   1.460       .  S
O603       Ni622   1.904       .  S
O603        C609   1.259       .  A
O604       Ni622   1.899       .  S
O604        C606   1.265       .  A
Ni605       O608   1.946       .  S
Ni605       O610   1.923       .  S
C606        O616   1.261       .  A
C606       C1960   1.458       .  S
O607       Ni623   1.879       .  S
O607        C613   1.272       .  A
O608        C613   1.280       .  A
C609       C1933   1.494       .  S
O610        C612   1.276       .  A
O611       Ni622   1.887       .  S
C612        O618   1.273       .  A
C612       C2545   1.486       .  S
C613       C1897   1.466       .  S
H614        O615   0.966       .  S
O615       Ni623   1.894       .  S
O615       Ni617   1.909       .  S
O615       Ni622   1.903       .  S
O616       Ni617   1.912       .  S
Ni617       O621   1.897       .  S
Ni617       O619   1.935       .  S
O618       Ni623   1.918       .  S
C620        O621   1.267       .  A
C620       C2056   1.511       .  S
O625       Ni631   1.962       .  S
O625        C646   1.279       .  A
O626       Ni649   1.949       .  S
O626        C635   1.279   1_545  A
O627       Ni631   1.898       .  S
O627       Ni649   1.907       .  S
O627       Ni643   1.870   1_545  S
O627        H650   0.966       .  S
C628        O645   1.252       .  A
C628        O637   1.267       .  A
C628       C1861   1.451       .  S
O629       Ni648   1.926       .  S
O629        C635   1.273       .  A
O630       Ni648   1.882   1_545  S
O630        C632   1.271       .  A
Ni631       O634   1.930       .  S
Ni631       O636   1.915   1_545  S
C632        O642   1.285       .  A
C632       C1849   1.469       .  S
O633       Ni649   1.878       .  S
O633        C639   1.267       .  A
O634        C639   1.279       .  A
C635       C1888   1.504       .  S
O636        C638   1.274       .  A
O637       Ni648   1.923       .  S
C638        O644   1.276       .  A
C638       C2464   1.476       .  S
C639       C1873   1.453       .  S
H640        O641   0.966       .  S
O641       Ni649   1.923   1_565  S
O641       Ni643   1.920       .  S
O641       Ni648   1.906       .  S
O642       Ni643   1.965   1_545  S
Ni643       O647   1.891       .  S
Ni643       O645   1.892       .  S
O644       Ni649   1.925   1_565  S
C646        O647   1.267   1_545  A
C646       C1981   1.500       .  S
O651       Ni657   1.977   1_565  S
O651        C672   1.281   1_565  A
O652       Ni675   1.987   1_565  S
O652        C661   1.288   1_565  A
O653       Ni657   1.890       .  S
O653       Ni675   1.942       .  S
O653       Ni669   1.895   1_545  S
O653        H676   0.967       .  S
C654        O671   1.273       .  A
C654        O663   1.277       .  A
C654       C1813   1.470       .  S
O655       Ni674   1.894   1_545  S
O655        C661   1.263       .  A
O656       Ni674   1.920   1_545  S
O656        C658   1.268       .  A
Ni657       O660   1.936       .  S
Ni657       O662   1.891   1_545  S
C658        O668   1.256       .  A
C658       C1804   1.475       .  S
O659       Ni675   1.906       .  S
O659        C665   1.276       .  A
O660        C665   1.276       .  A
C661       C1840   1.508   1_545  S
O662        C664   1.271       .  A
O663       Ni674   1.913       .  S
C664        O670   1.288       .  A
C664       C2512   1.476       .  S
C665       C1825   1.465       .  S
H666        O667   0.966       .  S
O667       Ni675   1.895   1_565  S
O667       Ni669   1.884       .  S
O667       Ni674   1.890       .  S
O668       Ni669   1.885   1_545  S
Ni669       O673   1.897   1_565  S
Ni669       O671   1.895       .  S
O670       Ni675   1.976   1_565  S
C672        O673   1.262       .  A
C672       C1885   1.496   1_545  S
O677       Ni683   1.951       .  S
O677        C698   1.277       .  A
O678       Ni701   1.965       .  S
O678        C687   1.278       .  A
O679       Ni683   1.905       .  S
O679       Ni701   1.928       .  S
O679       Ni695   1.910       .  S
O679        H702   0.967       .  S
C680        O697   1.280       .  A
C680        O689   1.273       .  A
C680       C1801   1.453       .  S
O681       Ni700   1.909       .  S
O681        C687   1.261       .  A
O682       Ni700   1.891       .  S
O682        C684   1.264       .  A
Ni683       O686   1.931       .  S
Ni683       O688   1.907       .  S
C684        O694   1.267       .  A
C684       C1852   1.457       .  S
O685       Ni701   1.876       .  S
O685        C691   1.269       .  A
O686        C691   1.276       .  A
C687       C1792   1.494       .  S
O688        C690   1.273       .  A
O689       Ni700   1.882       .  S
C690        O696   1.277       .  A
C690       C1765   1.469       .  S
C691       C1912   1.462       .  S
H692        O693   0.966       .  S
O693       Ni701   1.883       .  S
O693       Ni695   1.904       .  S
O693       Ni700   1.886       .  S
O694       Ni695   1.925       .  S
Ni695       O699   1.920       .  S
Ni695       O697   1.935       .  S
O696       Ni701   1.931       .  S
C698        O699   1.276       .  A
C698       C1780   1.507       .  S
O703       Ni709   1.905       .  S
O703        C724   1.268       .  A
O704       Ni727   1.877       .  S
O704        C713   1.261       .  A
O705       Ni709   1.912       .  S
O705       Ni727   1.917       .  S
O705       Ni721   1.915       .  S
O705        H728   0.966       .  S
C706        O723   1.269       .  A
C706        O715   1.282       .  A
C706       C1900   1.468       .  S
O707       Ni726   1.975       .  S
O707        C713   1.283       .  A
O708       Ni726   1.907       .  S
O708        C710   1.274       .  A
Ni709       O712   1.909       .  S
Ni709       O714   1.890       .  S
C710        O720   1.279       .  A
C710       C1753   1.473       .  S
O711       Ni727   1.903       .  S
O711        C717   1.257       .  A
O712        C717   1.258       .  A
C713       C2416   1.496       .  S
O714        C716   1.272       .  A
O715       Ni726   1.949       .  S
C716        O722   1.280       .  A
C716       C1864   1.462       .  S
C717       C1816   1.447       .  S
H718        O719   0.966       .  S
O719       Ni727   1.882       .  S
O719       Ni721   1.919       .  S
O719       Ni726   1.899       .  S
O720       Ni721   1.929       .  S
Ni721       O725   1.966       .  S
Ni721       O723   1.873       .  S
O722       Ni727   1.945       .  S
C724        O725   1.284       .  A
C724       C1789   1.497       .  S
O729       Ni735   1.917       .  S
O729        C750   1.268       .  A
O730       Ni753   1.921       .  S
O730        C739   1.277       .  A
O731       Ni735   1.886       .  S
O731       Ni753   1.929       .  S
O731       Ni747   1.908       .  S
O731        H754   0.965       .  S
C732        O749   1.275       .  A
C732        O741   1.279       .  A
C732       C1876   1.446       .  S
O733       Ni752   1.943   1_556  S
O733        C739   1.277       .  A
O734       Ni752   1.905   1_556  S
O734        C736   1.269       .  A
Ni735       O738   1.895       .  S
Ni735       O740   1.919       .  S
C736        O746   1.271       .  A
C736       C2728   1.465       .  S
O737       Ni753   1.914       .  S
O737        C743   1.266       .  A
O738        C743   1.267       .  A
C739       C2308   1.503       .  S
O740        C742   1.274       .  A
O741       Ni752   1.920       .  S
C742        O748   1.274       .  A
C742       C1717   1.480   1_556  S
C743       C1729   1.458       .  S
H744        O745   0.967   1_554  S
O745       Ni753   1.879       .  S
O745       Ni747   1.911       .  S
O745       Ni752   1.882   1_556  S
O746       Ni747   1.915       .  S
Ni747       O751   1.960       .  S
Ni747       O749   1.886   1_556  S
O748       Ni753   1.913       .  S
C750        O751   1.280       .  A
C750       C1741   1.504       .  S
O755       Ni761   1.899       .  S
O755        C776   1.266   1_554  A
O756       Ni779   1.889       .  S
O756        C765   1.265       .  A
O757       Ni761   1.898   1_556  S
O757       Ni779   1.908       .  S
O757       Ni773   1.937       .  S
O757        H780   0.966   1_556  S
C758        O775   1.280       .  A
C758        O767   1.276       .  A
C758       C2656   1.485       .  S
O759       Ni778   1.957       .  S
O759        C765   1.277       .  A
O760       Ni778   1.900       .  S
O760        C762   1.271       .  A
Ni761       O764   1.912       .  S
Ni761       O766   1.883   1_554  S
C762        O772   1.283       .  A
C762       C1828   1.456   1_556  S
O763       Ni779   1.903   1_554  S
O763        C769   1.256       .  A
O764        C769   1.262       .  A
C765       C1708   1.496       .  S
O766        C768   1.272       .  A
O767       Ni778   1.926       .  S
C768        O774   1.283       .  A
C768       C1693   1.454       .  S
C769       C1681   1.449       .  S
H770        O771   0.966       .  S
O771       Ni779   1.884       .  S
O771       Ni773   1.914       .  S
O771       Ni778   1.895       .  S
O772       Ni773   1.945       .  S
Ni773       O777   1.976       .  S
Ni773       O775   1.915       .  S
O774       Ni779   1.952       .  S
C776        O777   1.289       .  A
C776       C1744   1.507       .  S
O781       Ni787   1.951       .  S
O781        C802   1.275       .  A
O782       Ni805   1.974       .  S
O782        C791   1.286       .  A
O783       Ni787   1.893       .  S
O783       Ni805   1.932       .  S
O783       Ni799   1.943       .  S
O783        H806   0.966       .  S
C784        O801   1.281       .  A
C784        O793   1.284       .  A
C784       C1684   1.472       .  S
O785       Ni804   1.898       .  S
O785        C791   1.262       .  A
O786       Ni804   1.908       .  S
O786        C788   1.260       .  A
Ni787       O790   1.929       .  S
Ni787       O792   1.898       .  S
C788        O798   1.257       .  A
C788       C1720   1.458       .  S
O789       Ni805   1.916       .  S
O789        C795   1.267       .  A
O790        C795   1.270       .  A
C791       C1777   1.507       .  S
O792        C794   1.281       .  A
O793       Ni804   1.923       .  S
C794        O800   1.299       .  A
C794       C1657   1.475       .  S
C795       C2236   1.471       .  S
H796        O797   0.967       .  S
O797       Ni805   1.879       .  S
O797       Ni799   1.876       .  S
O797       Ni804   1.883       .  S
O798       Ni799   1.898       .  S
Ni799       O803   1.919       .  S
Ni799       O801   1.902       .  S
O800       Ni805   1.988       .  S
C802        O803   1.270       .  A
C802       C1672   1.505       .  S
O807       Ni813   1.899       .  S
O807        C828   1.258       .  A
O808       Ni831   1.916       .  S
O808        C817   1.268       .  A
O809       Ni813   1.909       .  S
O809       Ni831   1.909       .  S
O809       Ni825   1.890       .  S
O809        H832   0.966       .  S
C810        O827   1.269       .  A
C810        O819   1.260       .  A
C810       C2224   1.460       .  S
O811       Ni830   1.949       .  S
O811        C817   1.274       .  A
O812       Ni830   1.897       .  S
O812        C814   1.273       .  A
Ni813       O816   1.928       .  S
Ni813       O818   1.883       .  S
C814        O824   1.294       .  A
C814       C1645   1.478       .  S
O815       Ni831   1.881       .  S
O815        C821   1.268       .  A
O816        C821   1.278       .  A
C817       C1669   1.511       .  S
O818        C820   1.256       .  A
O819       Ni830   1.914       .  S
C820        O826   1.264       .  A
C820       C1732   1.478       .  S
C821       C1696   1.468       .  S
H822        O823   0.966       .  S
O823       Ni831   1.919       .  S
O823       Ni825   1.954       .  S
O823       Ni830   1.903       .  S
O824       Ni825   1.992       .  S
Ni825       O829   1.976       .  S
Ni825       O827   1.921       .  S
O826       Ni831   1.915       .  S
C828        O829   1.285       .  A
C828       C2605   1.495       .  S
O833       Ni839   1.970       .  S
O833        C854   1.278       .  A
O834       Ni857   1.973       .  S
O834        C843   1.288       .  A
O835       Ni839   1.908       .  S
O835       Ni857   1.928       .  S
O835       Ni851   1.876       .  S
O835        H858   0.966       .  S
C836        O853   1.250       .  A
C836        O845   1.264       .  A
C836       C1600   1.445       .  S
O837       Ni856   1.901       .  S
O837        C843   1.269       .  A
O838       Ni856   1.890       .  S
O838        C840   1.270       .  A
Ni839       O842   1.922       .  S
Ni839       O844   1.912       .  S
C840        O850   1.278       .  A
C840       C1609   1.464       .  S
O841       Ni857   1.908       .  S
O841        C847   1.278       .  A
O842        C847   1.276       .  A
C843       C1633   1.499       .  S
O844        C846   1.275       .  A
O845       Ni856   1.921   1_554  S
C846        O852   1.275       .  A
C846       C1621   1.460   1_556  S
C847       C2884   1.470       .  S
H848        O849   0.966   1_554  S
O849       Ni857   1.924       .  S
O849       Ni851   1.913       .  S
O849       Ni856   1.910       .  S
O850       Ni851   1.951       .  S
Ni851       O855   1.871       .  S
Ni851       O853   1.887   1_556  S
O852       Ni857   1.927       .  S
C854        O855   1.256       .  A
C854       C1705   1.497       .  S
O859       Ni865   1.957       .  S
O859        C880   1.281       .  A
O860       Ni883   1.969       .  S
O860        C869   1.278       .  A
O861       Ni865   1.905       .  S
O861       Ni883   1.917       .  S
O861       Ni877   1.898       .  S
O861        H884   0.966   1_556  S
C862        O879   1.277       .  A
C862        O871   1.273       .  A
C862       C1573   1.459       .  S
O863       Ni882   1.903       .  S
O863        C869   1.260       .  A
O864       Ni882   1.903       .  S
O864        C866   1.267       .  A
Ni865       O868   1.933   1_556  S
Ni865       O870   1.937       .  S
C866        O876   1.269       .  A
C866       C1561   1.471   1_556  S
O867       Ni883   1.892   1_554  S
O867        C873   1.278       .  A
O868        C873   1.280       .  A
C869       C1636   1.494       .  S
O870        C872   1.276       .  A
O871       Ni882   1.890       .  S
C872        O878   1.270       .  A
C872       C2932   1.493       .  S
C873       C1588   1.459       .  S
H874        O875   0.966       .  S
O875       Ni883   1.901       .  S
O875       Ni877   1.911       .  S
O875       Ni882   1.894       .  S
O876       Ni877   1.930       .  S
Ni877       O881   1.912       .  S
Ni877       O879   1.930       .  S
O878       Ni883   1.913       .  S
C880        O881   1.272       .  A
C880       C2524   1.508       .  S
O885       Ni891   1.971       .  S
O885        C906   1.279       .  A
O886       Ni909   1.985       .  S
O886        C895   1.291       .  A
O887       Ni891   1.910       .  S
O887       Ni909   1.932       .  S
O887       Ni903   1.870       .  S
O887        H910   0.967       .  S
C888        O905   1.248       .  A
C888        O897   1.254       .  A
C888       C1597   1.448       .  S
O889       Ni908   1.896       .  S
O889        C895   1.266       .  A
O890       Ni908   1.886       .  S
O890        C892   1.269       .  A
Ni891       O894   1.920       .  S
Ni891       O896   1.923       .  S
C892        O902   1.291       .  A
C892       C1564   1.474       .  S
O893       Ni909   1.899       .  S
O893        C899   1.278       .  A
O894        C899   1.277       .  A
C895       C1549   1.505       .  S
O896        C898   1.275       .  A
O897       Ni908   1.892       .  S
C898        O904   1.280       .  A
C898       C1660   1.477       .  S
C899       C2404   1.463       .  S
H900        O901   0.965       .  S
O901       Ni909   1.917       .  S
O901       Ni903   1.938       .  S
O901       Ni908   1.909       .  S
O902       Ni903   1.986       .  S
Ni903       O907   1.895       .  S
Ni903       O905   1.906       .  S
O904       Ni909   1.947       .  S
C906        O907   1.266       .  A
C906       C1537   1.505       .  S
O911       Ni917   1.908       .  S
O911        C932   1.268       .  A
O912       Ni935   1.910       .  S
O912        C921   1.270       .  A
O913       Ni917   1.916       .  S
O913       Ni935   1.934       .  S
O913       Ni929   1.917       .  S
O913        H936   0.966       .  S
C914        O931   1.271       .  A
C914        O923   1.282       .  A
C914       C2380   1.475       .  S
O915       Ni934   1.974       .  S
O915        C921   1.285       .  A
O916       Ni934   1.926       .  S
O916        C918   1.277       .  A
Ni917       O920   1.900       .  S
Ni917       O922   1.890       .  S
C918        O928   1.281       .  A
C918       C1648   1.477       .  S
O919       Ni935   1.921       .  S
O919        C925   1.259       .  A
O920        C925   1.256       .  A
C921       C2824   1.519       .  S
O922        C924   1.272       .  A
O923       Ni934   1.948       .  S
C924        O930   1.284       .  A
C924       C1576   1.471       .  S
C925       C1612   1.453       .  S
H926        O927   0.966       .  S
O927       Ni935   1.886       .  S
O927       Ni929   1.921       .  S
O927       Ni934   1.899       .  S
O928       Ni929   1.933       .  S
Ni929       O933   1.978       .  S
Ni929       O931   1.881       .  S
O930       Ni935   1.957       .  S
C932        O933   1.287       .  A
C932       C1552   1.506       .  S
O937       Ni943   1.951       .  S
O937        C958   1.274   1_455  A
O938       Ni961   1.959       .  S
O938        C947   1.286       .  A
O939       Ni943   1.902       .  S
O939       Ni961   1.945       .  S
O939       Ni955   1.911   1_455  S
O939        H962   0.966       .  S
C940        O957   1.261       .  A
C940        O949   1.285       .  A
C940       C1513   1.471       .  S
O941       Ni960   1.920   1_455  S
O941        C947   1.272       .  A
O942       Ni960   1.899   1_455  S
O942        C944   1.265       .  A
Ni943       O946   1.893       .  S
Ni943       O948   1.899   1_455  S
C944        O954   1.265       .  A
C944       C1504   1.463       .  S
O945       Ni961   1.955       .  S
O945        C951   1.272       .  A
O946        C951   1.251       .  A
C947       C2152   1.495   1_455  S
O948        C950   1.282       .  A
O949       Ni960   1.948       .  S
C950        O956   1.297       .  A
C950       C2344   1.464       .  S
C951       C1585   1.473       .  S
H952        O953   0.966       .  S
O953       Ni961   1.895   1_655  S
O953       Ni955   1.889       .  S
O953       Ni960   1.887       .  S
O954       Ni955   1.902   1_455  S
Ni955       O959   1.915       .  S
Ni955       O957   1.857       .  S
O956       Ni961   1.975   1_655  S
C958        O959   1.268       .  A
C958       C1525   1.508       .  S
O963       Ni969   1.973       .  S
O963        C984   1.283       .  A
O964       Ni987   1.972       .  S
O964        C973   1.283       .  A
O965       Ni969   1.895   1_455  S
O965       Ni987   1.920   1_455  S
O965       Ni981   1.913   1_455  S
O965        H988   0.966       .  S
C966        O983   1.280       .  A
C966        O975   1.276       .  A
C966       C1480   1.469       .  S
O967       Ni986   1.903       .  S
O967        C973   1.263       .  A
O968       Ni986   1.910       .  S
O968        C970   1.263       .  A
Ni969       O972   1.943   1_655  S
Ni969       O974   1.926       .  S
C970        O980   1.258       .  A
C970       C1468   1.452   1_655  S
O971       Ni987   1.902   1_455  S
O971        C977   1.275       .  A
O972        C977   1.281       .  A
C973       C1528   1.499       .  S
O974        C976   1.279       .  A
O975       Ni986   1.898       .  S
C976        O982   1.282       .  A
C976       C2296   1.480       .  S
C977       C1624   1.475       .  S
H978        O979   0.965       .  S
O979       Ni987   1.906       .  S
O979       Ni981   1.887       .  S
O979       Ni986   1.888       .  S
O980       Ni981   1.896       .  S
Ni981       O985   1.888       .  S
Ni981       O983   1.934       .  S
O982       Ni987   1.937       .  S
C984        O985   1.266       .  A
C984       C1489   1.503       .  S
O989       Ni995   1.965       .  S
O989       C1010   1.276       .  A
O990      Ni1013   1.967       .  S
O990        C999   1.284       .  A
O991       Ni995   1.894       .  S
O991      Ni1013   1.934       .  S
O991      Ni1007   1.936       .  S
O991       H1014   0.966       .  S
C992       O1009   1.270       .  A
C992       O1001   1.284       .  A
C992       C1465   1.476       .  S
O993      Ni1012   1.914       .  S
O993        C999   1.267       .  A
O994      Ni1012   1.896       .  S
O994        C996   1.261       .  A
Ni995       O998   1.928       .  S
Ni995      O1000   1.903       .  S
C996       O1006   1.263       .  A
C996       C1501   1.463       .  S
O997      Ni1013   1.912       .  S
O997       C1003   1.267       .  A
O998       C1003   1.270       .  A
C999       C1540   1.505       .  S
O1000      C1002   1.284       .  A
O1001     Ni1012   1.940       .  S
C1002      O1008   1.293       .  A
C1002      C1441   1.477       .  S
C1003      C2068   1.467       .  S
H1004      O1005   0.966       .  S
O1005     Ni1013   1.885       .  S
O1005     Ni1007   1.884       .  S
O1005     Ni1012   1.888       .  S
O1006     Ni1007   1.908       .  S
Ni1007     O1011   1.914       .  S
Ni1007     O1009   1.884       .  S
O1008     Ni1013   1.968       .  S
C1010      O1011   1.267       .  A
C1010      C1456   1.518       .  S
O1015     Ni1021   1.959       .  S
O1015      C1036   1.279       .  A
O1016     Ni1039   1.974       .  S
O1016      C1025   1.282       .  A
O1017     Ni1021   1.896       .  S
O1017     Ni1039   1.928       .  S
O1017     Ni1033   1.920       .  S
O1017      H1040   0.966       .  S
C1018      O1035   1.277       .  A
C1018      O1027   1.274       .  A
C1018      C1477   1.468       .  S
O1019     Ni1038   1.912       .  S
O1019      C1025   1.264       .  A
O1020     Ni1038   1.903       .  S
O1020      C1022   1.265       .  A
Ni1021     O1024   1.937       .  S
Ni1021     O1026   1.917       .  S
C1022      O1032   1.258       .  A
C1022      C1516   1.445       .  S
O1023     Ni1039   1.893       .  S
O1023      C1029   1.270       .  A
O1024      C1029   1.279       .  A
C1025      C1453   1.507       .  S
O1026      C1028   1.276       .  A
O1027     Ni1038   1.896       .  S
C1028      O1034   1.279       .  A
C1028      C1432   1.459       .  S
C1029      C2044   1.473       .  S
H1030      O1031   0.965       .  S
O1031     Ni1039   1.901       .  S
O1031     Ni1033   1.908       .  S
O1031     Ni1038   1.895       .  S
O1032     Ni1033   1.887       .  S
Ni1033     O1037   1.910       .  S
Ni1033     O1035   1.929       .  S
O1034     Ni1039   1.926       .  S
C1036      O1037   1.271       .  A
C1036      C2245   1.505       .  S
O1041     Ni1047   1.904       .  S
O1041      C1062   1.261       .  A
O1042     Ni1065   1.906       .  S
O1042      C1051   1.272       .  A
O1043     Ni1047   1.891       .  S
O1043     Ni1065   1.911       .  S
O1043     Ni1059   1.892       .  S
O1043      H1066   0.966       .  S
C1044      O1061   1.274       .  A
C1044      O1053   1.283       .  A
C1044      C1408   1.464       .  S
O1045     Ni1064   1.970       .  S
O1045      C1051   1.284       .  A
O1046     Ni1064   1.924       .  S
O1046      C1048   1.273       .  A
Ni1047     O1050   1.884       .  S
Ni1047     O1052   1.911       .  S
C1048      O1058   1.277       .  A
C1048      C2200   1.475       .  S
O1049     Ni1065   1.932       .  S
O1049      C1055   1.277       .  A
O1050      C1055   1.271       .  A
C1051      C2680   1.511       .  S
O1052      C1054   1.267   1_565  A
O1053     Ni1064   1.951   1_545  S
C1054      O1060   1.264       .  A
C1054      C1381   1.463       .  S
C1055      C1393   1.458       .  S
H1056      O1057   0.966       .  S
O1057     Ni1065   1.895   1_545  S
O1057     Ni1059   1.917   1_545  S
O1057     Ni1064   1.896   1_545  S
O1058     Ni1059   1.929       .  S
Ni1059     O1063   1.971       .  S
Ni1059     O1061   1.878   1_565  S
O1060     Ni1065   1.916   1_545  S
C1062      O1063   1.281       .  A
C1062      C1417   1.497       .  S
O1067     Ni1073   1.904       .  S
O1067      C1088   1.269   1_545  A
O1068     Ni1091   1.901   1_565  S
O1068      C1077   1.269       .  A
O1069     Ni1073   1.910       .  S
O1069     Ni1091   1.936       .  S
O1069     Ni1085   1.926   1_545  S
O1069      H1092   0.966       .  S
C1070      O1087   1.277       .  A
C1070      O1079   1.280       .  A
C1070      C2128   1.452       .  S
O1071     Ni1090   1.981       .  S
O1071      C1077   1.283       .  A
O1072     Ni1090   1.926   1_545  S
O1072      C1074   1.279       .  A
Ni1073     O1076   1.886       .  S
Ni1073     O1078   1.887   1_545  S
C1074      O1084   1.271   1_545  A
C1074      C1369   1.481       .  S
O1075     Ni1091   1.917       .  S
O1075      C1081   1.252       .  A
O1076      C1081   1.254       .  A
C1077      C1837   1.515       .  S
O1078      C1080   1.274       .  A
O1079     Ni1090   1.930       .  S
C1080      O1086   1.291       .  A
C1080      C1357   1.483       .  S
C1081      C1345   1.456       .  S
H1082      O1083   0.966       .  S
O1083     Ni1091   1.870   1_565  S
O1083     Ni1085   1.924       .  S
O1083     Ni1090   1.896       .  S
O1084     Ni1085   1.913       .  S
Ni1085     O1089   1.978       .  S
Ni1085     O1087   1.896       .  S
O1086     Ni1091   1.972   1_565  S
C1088      O1089   1.289       .  A
C1088      C1420   1.505       .  S
O1093     Ni1099   1.906       .  S
O1093      C1114   1.264       .  A
O1094     Ni1117   1.895       .  S
O1094      C1103   1.268       .  A
O1095     Ni1099   1.882       .  S
O1095     Ni1117   1.894       .  S
O1095     Ni1111   1.896       .  S
O1095      H1118   0.965       .  S
C1096      O1113   1.275       .  A
C1096      O1105   1.282       .  A
C1096      C2593   1.474       .  S
O1097     Ni1116   1.967       .  S
O1097      C1103   1.281       .  A
O1098     Ni1116   1.909       .  S
O1098      C1100   1.271       .  A
Ni1099     O1102   1.891       .  S
Ni1099     O1104   1.902       .  S
C1100      O1110   1.275       .  A
C1100      C1768   1.471       .  S
O1101     Ni1117   1.928       .  S
O1101      C1107   1.275       .  A
O1102      C1107   1.275       .  A
C1103      C1321   1.504       .  S
O1104      C1106   1.264       .  A
O1105     Ni1116   1.939       .  S
C1106      O1112   1.266       .  A
C1106      C1384   1.460       .  S
C1107      C1348   1.455       .  S
H1108      O1109   0.966       .  S
O1109     Ni1117   1.897       .  S
O1109     Ni1111   1.924       .  S
O1109     Ni1116   1.899       .  S
O1110     Ni1111   1.927       .  S
Ni1111     O1115   1.965       .  S
Ni1111     O1113   1.890       .  S
O1112     Ni1117   1.923       .  S
C1114      O1115   1.281       .  A
C1114      C1336   1.494       .  S
O1119     Ni1125   1.953       .  S
O1119      C1140   1.277       .  A
O1120     Ni1143   1.965       .  S
O1120      C1129   1.274       .  A
O1121     Ni1125   1.910       .  S
O1121     Ni1143   1.930       .  S
O1121     Ni1137   1.912       .  S
O1121      H1144   0.966       .  S
C1122      O1139   1.282       .  A
C1122      O1131   1.271       .  A
C1122      C1360   1.462       .  S
O1123     Ni1142   1.902       .  S
O1123      C1129   1.256       .  A
O1124     Ni1142   1.885       .  S
O1124      C1126   1.263       .  A
Ni1125     O1128   1.936       .  S
Ni1125     O1130   1.907       .  S
C1126      O1136   1.264       .  A
C1126      C1396   1.466       .  S
O1127     Ni1143   1.875       .  S
O1127      C1133   1.268       .  A
O1128      C1133   1.279       .  A
C1129      C1333   1.491       .  S
O1130      C1132   1.272       .  A
O1131     Ni1142   1.883       .  S
C1132      O1138   1.273       .  A
C1132      C1756   1.475       .  S
C1133      C2560   1.465       .  S
H1134      O1135   0.966       .  S
O1135     Ni1143   1.893       .  S
O1135     Ni1137   1.919       .  S
O1135     Ni1142   1.905       .  S
O1136     Ni1137   1.916       .  S
Ni1137     O1141   1.924       .  S
Ni1137     O1139   1.943       .  S
O1138     Ni1143   1.917       .  S
C1140      O1141   1.276       .  A
C1140      C2077   1.510       .  S
O1145     Ni1151   1.969   1_655  S
O1145      C1166   1.284       .  A
O1146     Ni1169   1.971       .  S
O1146      C1155   1.281       .  A
O1147     Ni1151   1.898       .  S
O1147     Ni1169   1.920       .  S
O1147     Ni1163   1.901   1_455  S
O1147      H1170   0.966       .  S
C1148      O1165   1.279       .  A
C1148      O1157   1.272       .  A
C1148      C1300   1.454       .  S
O1149     Ni1168   1.911   1_455  S
O1149      C1155   1.263       .  A
O1150     Ni1168   1.905   1_455  S
O1150      C1152   1.266       .  A
Ni1151     O1154   1.954       .  S
Ni1151     O1156   1.917   1_455  S
C1152      O1162   1.267       .  A
C1152      C1288   1.460       .  S
O1153     Ni1169   1.872       .  S
O1153      C1159   1.271       .  A
O1154      C1159   1.283       .  A
C1155      C1309   1.501       .  S
O1156      C1158   1.273       .  A
O1157     Ni1168   1.880       .  S
C1158      O1164   1.278       .  A
C1158      C2020   1.488       .  S
C1159      C1405   1.464       .  S
H1160      O1161   0.966       .  S
O1161     Ni1169   1.888   1_655  S
O1161     Ni1163   1.910       .  S
O1161     Ni1168   1.887       .  S
O1162     Ni1163   1.923   1_455  S
Ni1163     O1167   1.921       .  S
Ni1163     O1165   1.937       .  S
O1164     Ni1169   1.933   1_655  S
C1166      O1167   1.278       .  A
C1166      C2896   1.519       .  S
O1171     Ni1177   1.904   1_455  S
O1171      C1192   1.256       .  A
O1172     Ni1195   1.890   1_455  S
O1172      C1181   1.262   1_455  A
O1173     Ni1177   1.914       .  S
O1173     Ni1195   1.919       .  S
O1173     Ni1189   1.900   1_655  S
O1173      H1196   0.966       .  S
C1174      O1191   1.277       .  A
C1174      O1183   1.280       .  A
C1174      C1372   1.469       .  S
O1175     Ni1194   1.973   1_655  S
O1175      C1181   1.279       .  A
O1176     Ni1194   1.920   1_655  S
O1176      C1178   1.273       .  A
Ni1177     O1180   1.899       .  S
Ni1177     O1182   1.876   1_655  S
C1178      O1188   1.269       .  A
C1178      C1969   1.475       .  S
O1179     Ni1195   1.899       .  S
O1179      C1185   1.266       .  A
O1180      C1185   1.271       .  A
C1181      C1492   1.509       .  S
O1182      C1184   1.261       .  A
O1183     Ni1194   1.932       .  S
C1184      O1190   1.262       .  A
C1184      C1261   1.456       .  S
C1185      C1273   1.444       .  S
H1186      O1187   0.966       .  S
O1187     Ni1195   1.891   1_455  S
O1187     Ni1189   1.936       .  S
O1187     Ni1194   1.918       .  S
O1188     Ni1189   1.904   1_655  S
Ni1189     O1193   1.977       .  S
Ni1189     O1191   1.899       .  S
O1190     Ni1195   1.914   1_455  S
C1192      O1193   1.280       .  A
C1192      C1312   1.499       .  S
O1197     Ni1203   1.970       .  S
O1197      C1218   1.284       .  A
O1198     Ni1221   1.959       .  S
O1198      C1207   1.281       .  A
O1199     Ni1203   1.897       .  S
O1199     Ni1221   1.912       .  S
O1199     Ni1215   1.887       .  S
O1199      H1222   0.966       .  S
C1200      O1217   1.275       .  A
C1200      O1209   1.275       .  A
C1200      C1264   1.459       .  S
O1201     Ni1220   1.920       .  S
O1201      C1207   1.267       .  A
O1202     Ni1220   1.908       .  S
O1202      C1204   1.266       .  A
Ni1203     O1206   1.944       .  S
Ni1203     O1208   1.924       .  S
C1204      O1214   1.265       .  A
C1204      C1285   1.462       .  S
O1205     Ni1221   1.872       .  S
O1205      C1211   1.273       .  A
O1206      C1211   1.282       .  A
C1207      C1249   1.495       .  S
O1208      C1210   1.275       .  A
O1209     Ni1220   1.893       .  S
C1210      O1216   1.275       .  A
C1210      C1444   1.478       .  S
C1211      C2812   1.459       .  S
H1212      O1213   0.965       .  S
O1213     Ni1221   1.885       .  S
O1213     Ni1215   1.901       .  S
O1213     Ni1220   1.885       .  S
O1214     Ni1215   1.921       .  S
Ni1215     O1219   1.894       .  S
Ni1215     O1217   1.924       .  S
O1216     Ni1221   1.926       .  S
C1218      O1219   1.269       .  A
C1218      C1324   1.505       .  S
O1223     Ni1229   1.952       .  S
O1223      C1244   1.274       .  A
O1224     Ni1247   1.963       .  S
O1224      C1233   1.279       .  A
O1225     Ni1229   1.899       .  S
O1225     Ni1247   1.943       .  S
O1225     Ni1241   1.923       .  S
O1225      H1248   0.966       .  S
C1226      O1243   1.269       .  A
C1226      O1235   1.281       .  A
C1226      C1276   1.470       .  S
O1227     Ni1246   1.901       .  S
O1227      C1233   1.261       .  A
O1228     Ni1246   1.891       .  S
O1228      C1230   1.260       .  A
Ni1229     O1232   1.917       .  S
Ni1229     O1234   1.900       .  S
C1230      O1240   1.263       .  A
C1230      C1297   1.480       .  S
O1231     Ni1247   1.910       .  S
O1231      C1237   1.267       .  A
O1232      C1237   1.263       .  A
C1233      C1924   1.490       .  S
O1234      C1236   1.279       .  A
O1235     Ni1246   1.932       .  S
C1236      O1242   1.288       .  A
C1236      C1429   1.461       .  S
C1237      C2776   1.449       .  S
H1238      O1239   0.966       .  S
O1239     Ni1247   1.886       .  S
O1239     Ni1241   1.899       .  S
O1239     Ni1246   1.896       .  S
O1240     Ni1241   1.911       .  S
Ni1241     O1245   1.918       .  S
Ni1241     O1243   1.876       .  S
O1242     Ni1247   1.963       .  S
C1244      O1245   1.266       .  A
C1244      C1252   1.498       .  S
C1249      C1250   1.407       .  A
C1249      C1254   1.412       .  A
C1250      C1251   1.414   1_455  A
C1250      H1255   1.083       .  S
C1251      C1252   1.412       .  A
C1251      O1256   1.371       .  S
C1252      C1253   1.406       .  A
C1253      C1254   1.409   1_655  A
C1253      H1257   1.081       .  S
C1254      O1258   1.371       .  S
O1256      H1260   0.992       .  S
O1258      H1259   0.991       .  S
C1261      C1262   1.396       .  A
C1261      C1266   1.411       .  A
C1262      C1263   1.398       .  A
C1262      H1267   1.084       .  S
C1263      C1264   1.411       .  A
C1263      O1268   1.374       .  S
C1264      C1265   1.396       .  A
C1265      C1266   1.392       .  A
C1265      H1269   1.084       .  S
C1266      O1270   1.373       .  S
O1268      H1272   0.992       .  S
O1270      H1271   0.992       .  S
C1273      C1274   1.400       .  A
C1273      C1278   1.398       .  A
C1274      C1275   1.394       .  A
C1274      H1279   1.084       .  S
C1275      C1276   1.409       .  A
C1275      O1280   1.372       .  S
C1276      C1277   1.409       .  A
C1277      C1278   1.389       .  A
C1277      H1281   1.083       .  S
C1278      O1282   1.372       .  S
O1280      H1284   0.992       .  S
O1282      H1283   0.992       .  S
C1285      C1286   1.406       .  A
C1285      C1290   1.401       .  A
C1286      C1287   1.398       .  A
C1286      H1291   1.084       .  S
C1287      C1288   1.400       .  A
C1287      O1292   1.371       .  S
C1288      C1289   1.406       .  A
C1289      C1290   1.398       .  A
C1289      H1293   1.084       .  S
C1290      O1294   1.371       .  S
O1292      H1296   0.992       .  S
O1294      H1295   0.992       .  S
C1297      C1298   1.406       .  A
C1297      C1302   1.413       .  A
C1298      C1299   1.396       .  A
C1298      H1303   1.083       .  S
C1299      C1300   1.406       .  A
C1299      O1304   1.374       .  S
C1300      C1301   1.398       .  A
C1301      C1302   1.397       .  A
C1301      H1305   1.084       .  S
C1302      O1306   1.369       .  S
O1304      H1308   0.992       .  S
O1306      H1307   0.992       .  S
C1309      C1310   1.408   1_455  A
C1309      C1314   1.411       .  A
C1310      C1311   1.411       .  A
C1310      H1315   1.084       .  S
C1311      C1312   1.412   1_655  A
C1311      O1316   1.373       .  S
C1312      C1313   1.411       .  A
C1313      C1314   1.417       .  A
C1313      H1317   1.083       .  S
C1314      O1318   1.371       .  S
O1316      H1320   0.992       .  S
O1318      H1319   0.992       .  S
C1321      C1322   1.407       .  A
C1321      C1326   1.415       .  A
C1322      C1323   1.401       .  A
C1322      H1327   1.083       .  S
C1323      C1324   1.416       .  A
C1323      O1328   1.372       .  S
C1324      C1325   1.410       .  A
C1325      C1326   1.413       .  A
C1325      H1329   1.083       .  S
C1326      O1330   1.371       .  S
O1328      H1332   0.992       .  S
O1330      H1331   0.992       .  S
C1333      C1334   1.404       .  A
C1333      C1338   1.413       .  A
C1334      C1335   1.403   1_565  A
C1334      H1339   1.084       .  S
C1335      C1336   1.411       .  A
C1335      O1340   1.372       .  S
C1336      C1337   1.408       .  A
C1337      C1338   1.418   1_545  A
C1337      H1341   1.083       .  S
C1338      O1342   1.371       .  S
O1340      H1344   0.991       .  S
O1342      H1343   0.992       .  S
C1345      C1346   1.405       .  A
C1345      C1350   1.399       .  A
C1346      C1347   1.393       .  A
C1346      H1351   1.084       .  S
C1347      C1348   1.401       .  A
C1347      O1352   1.372       .  S
C1348      C1349   1.406       .  A
C1349      C1350   1.397       .  A
C1349      H1353   1.084       .  S
C1350      O1354   1.372       .  S
O1352      H1356   0.991       .  S
O1354      H1355   0.992       .  S
C1357      C1358   1.410       .  A
C1357      C1362   1.406       .  A
C1358      C1359   1.398       .  A
C1358      H1363   1.084       .  S
C1359      C1360   1.402       .  A
C1359      O1364   1.373       .  S
C1360      C1361   1.409       .  A
C1361      C1362   1.404       .  A
C1361      H1365   1.084       .  S
C1362      O1366   1.372       .  S
O1364      H1368   0.992       .  S
O1366      H1367   0.992       .  S
C1369      C1370   1.403       .  A
C1369      C1374   1.418       .  A
C1370      C1371   1.399       .  A
C1370      H1375   1.083       .  S
C1371      C1372   1.410       .  A
C1371      O1376   1.372       .  S
C1372      C1373   1.397       .  A
C1373      C1374   1.394       .  A
C1373      H1377   1.084       .  S
C1374      O1378   1.373       .  S
O1376      H1380   0.992       .  S
O1378      H1379   0.992       .  S
C1381      C1382   1.397       .  A
C1381      C1386   1.410       .  A
C1382      C1383   1.399       .  A
C1382      H1387   1.084       .  S
C1383      C1384   1.411       .  A
C1383      O1388   1.372       .  S
C1384      C1385   1.396       .  A
C1385      C1386   1.396       .  A
C1385      H1389   1.084       .  S
C1386      O1390   1.371       .  S
O1388      H1392   0.992       .  S
O1390      H1391   0.992       .  S
C1393      C1394   1.409       .  A
C1393      C1398   1.401       .  A
C1394      C1395   1.401       .  A
C1394      H1399   1.084       .  S
C1395      C1396   1.403       .  A
C1395      O1400   1.371       .  S
C1396      C1397   1.407       .  A
C1397      C1398   1.393       .  A
C1397      H1401   1.084       .  S
C1398      O1402   1.372       .  S
O1400      H1404   0.992       .  S
O1402      H1403   0.991       .  S
C1405      C1406   1.400       .  A
C1405      C1410   1.408       .  A
C1406      C1407   1.386       .  A
C1406      H1411   1.084       .  S
C1407      C1408   1.406       .  A
C1407      O1412   1.373       .  S
C1408      C1409   1.405       .  A
C1409      C1410   1.401       .  A
C1409      H1413   1.084       .  S
C1410      O1414   1.372       .  S
O1412      H1416   0.992       .  S
O1414      H1415   0.992       .  S
C1417      C1418   1.405   1_565  A
C1417      C1422   1.415       .  A
C1418      C1419   1.412       .  A
C1418      H1423   1.084       .  S
C1419      C1420   1.418   1_545  A
C1419      O1424   1.371       .  S
C1420      C1421   1.407       .  A
C1421      C1422   1.414       .  A
C1421      H1425   1.084       .  S
C1422      O1426   1.371       .  S
O1424      H1428   0.992       .  S
O1426      H1427   0.991       .  S
C1429      C1430   1.404       .  A
C1429      C1434   1.406       .  A
C1430      C1431   1.406       .  A
C1430      H1435   1.083       .  S
C1431      C1432   1.408       .  A
C1431      O1436   1.371       .  S
C1432      C1433   1.397       .  A
C1433      C1434   1.384       .  A
C1433      H1437   1.085       .  S
C1434      O1438   1.373       .  S
O1436      H1440   0.992       .  S
O1438      H1439   0.992       .  S
C1441      C1442   1.402       .  A
C1441      C1446   1.411       .  A
C1442      C1443   1.393       .  A
C1442      H1447   1.084       .  S
C1443      C1444   1.410       .  A
C1443      O1448   1.372       .  S
C1444      C1445   1.405       .  A
C1445      C1446   1.406       .  A
C1445      H1449   1.083       .  S
C1446      O1450   1.372       .  S
O1448      H1452   0.992       .  S
O1450      H1451   0.992       .  S
C1453      C1454   1.411       .  A
C1453      C1458   1.412       .  A
C1454      C1455   1.426   1_655  A
C1454      H1459   1.083       .  S
C1455      C1456   1.420       .  A
C1455      O1460   1.370       .  S
C1456      C1457   1.408       .  A
C1457      C1458   1.402   1_455  A
C1457      H1461   1.081       .  S
C1458      O1462   1.372       .  S
O1460      H1464   0.992       .  S
O1462      H1463   0.992       .  S
C1465      C1466   1.402       .  A
C1465      C1470   1.419       .  A
C1466      C1467   1.390       .  A
C1466      H1471   1.084       .  S
C1467      C1468   1.405       .  A
C1467      O1472   1.373       .  S
C1468      C1469   1.394       .  A
C1469      C1470   1.396       .  A
C1469      H1473   1.084       .  S
C1470      O1474   1.371       .  S
O1472      H1476   0.991       .  S
O1474      H1475   0.992       .  S
C1477      C1478   1.407       .  A
C1477      C1482   1.405       .  A
C1478      C1479   1.397       .  A
C1478      H1483   1.084       .  S
C1479      C1480   1.405       .  A
C1479      O1484   1.371       .  S
C1480      C1481   1.406       .  A
C1481      C1482   1.396       .  A
C1481      H1485   1.084       .  S
C1482      O1486   1.372       .  S
O1484      H1488   0.991       .  S
O1486      H1487   0.991       .  S
C1489      C1490   1.411       .  A
C1489      C1494   1.414       .  A
C1490      C1491   1.420       .  A
C1490      H1495   1.083       .  S
C1491      C1492   1.417       .  A
C1491      O1496   1.370       .  S
C1492      C1493   1.408       .  A
C1493      C1494   1.396       .  A
C1493      H1497   1.083   1_655  S
C1494      O1498   1.373       .  S
O1496      H1500   0.992       .  S
O1498      H1499   0.992   1_655  S
C1501      C1502   1.405       .  A
C1501      C1506   1.404       .  A
C1502      C1503   1.394       .  A
C1502      H1507   1.084       .  S
C1503      C1504   1.405       .  A
C1503      O1508   1.372       .  S
C1504      C1505   1.405       .  A
C1505      C1506   1.393       .  A
C1505      H1509   1.084       .  S
C1506      O1510   1.372       .  S
O1508      H1512   0.992       .  S
O1510      H1511   0.992       .  S
C1513      C1514   1.398       .  A
C1513      C1518   1.424       .  A
C1514      C1515   1.392       .  A
C1514      H1519   1.084       .  S
C1515      C1516   1.408       .  A
C1515      O1520   1.373       .  S
C1516      C1517   1.387       .  A
C1517      C1518   1.391       .  A
C1517      H1521   1.084       .  S
C1518      O1522   1.372       .  S
O1520      H1524   0.992       .  S
O1522      H1523   0.992       .  S
C1525      C1526   1.406       .  A
C1525      C1530   1.419   1_655  A
C1526      C1527   1.398       .  A
C1526      H1531   1.083       .  S
C1527      C1528   1.412       .  A
C1527      O1532   1.372       .  S
C1528      C1529   1.410   1_655  A
C1529      C1530   1.422       .  A
C1529      H1533   1.083       .  S
C1530      O1534   1.370       .  S
O1532      H1536   0.992       .  S
O1534      H1535   0.992       .  S
C1537      C1538   1.402       .  A
C1537      C1542   1.419       .  A
C1538      C1539   1.395       .  A
C1538      H1543   1.084       .  S
C1539      C1540   1.417       .  A
C1539      O1544   1.373       .  S
C1540      C1541   1.411       .  A
C1541      C1542   1.424       .  A
C1541      H1545   1.083       .  S
C1542      O1546   1.371       .  S
O1544      H1548   0.992       .  S
O1546      H1547   0.992       .  S
C1549      C1550   1.410   1_554  A
C1549      C1554   1.416   1_554  A
C1550      C1551   1.412       .  A
C1550      H1555   1.084       .  S
C1551      C1552   1.412       .  A
C1551      O1556   1.371       .  S
C1552      C1553   1.411       .  A
C1553      C1554   1.420       .  A
C1553      H1557   1.084       .  S
C1554      O1558   1.372   1_556  S
O1556      H1560   0.992       .  S
O1558      H1559   0.992       .  S
C1561      C1562   1.405       .  A
C1561      C1566   1.402       .  A
C1562      C1563   1.400       .  A
C1562      H1567   1.084       .  S
C1563      C1564   1.405       .  A
C1563      O1568   1.371       .  S
C1564      C1565   1.410       .  A
C1565      C1566   1.403       .  A
C1565      H1569   1.084       .  S
C1566      O1570   1.371       .  S
O1568      H1572   0.991       .  S
O1570      H1571   0.992       .  S
C1573      C1574   1.397       .  A
C1573      C1578   1.410       .  A
C1574      C1575   1.395       .  A
C1574      H1579   1.084       .  S
C1575      C1576   1.413       .  A
C1575      O1580   1.372       .  S
C1576      C1577   1.400       .  A
C1577      C1578   1.398       .  A
C1577      H1581   1.084       .  S
C1578      O1582   1.374       .  S
O1580      H1584   0.991       .  S
O1582      H1583   0.992       .  S
C1585      C1586   1.410       .  A
C1585      C1590   1.406       .  A
C1586      C1587   1.379       .  A
C1586      H1591   1.084       .  S
C1587      C1588   1.396       .  A
C1587      O1592   1.373       .  S
C1588      C1589   1.409       .  A
C1589      C1590   1.407       .  A
C1589      H1593   1.083       .  S
C1590      O1594   1.371       .  S
O1592      H1596   0.992       .  S
O1594      H1595   0.992       .  S
C1597      C1598   1.395       .  A
C1597      C1602   1.407       .  A
C1598      C1599   1.394       .  A
C1598      H1603   1.084       .  S
C1599      C1600   1.408       .  A
C1599      O1604   1.372       .  S
C1600      C1601   1.393       .  A
C1601      C1602   1.387       .  A
C1601      H1605   1.084       .  S
C1602      O1606   1.370       .  S
O1604      H1608   0.991       .  S
O1606      H1607   0.991       .  S
C1609      C1610   1.399       .  A
C1609      C1614   1.408       .  A
C1610      C1611   1.399       .  A
C1610      H1615   1.084       .  S
C1611      C1612   1.410       .  A
C1611      O1616   1.373       .  S
C1612      C1613   1.396       .  A
C1613      C1614   1.394       .  A
C1613      H1617   1.084       .  S
C1614      O1618   1.371       .  S
O1616      H1620   0.992       .  S
O1618      H1619   0.991       .  S
C1621      C1622   1.401       .  A
C1621      C1626   1.402       .  A
C1622      C1623   1.399       .  A
C1622      H1627   1.083       .  S
C1623      C1624   1.410       .  A
C1623      O1628   1.372       .  S
C1624      C1625   1.407       .  A
C1625      C1626   1.395       .  A
C1625      H1629   1.084       .  S
C1626      O1630   1.372   1_554  S
O1628      H1632   0.992       .  S
O1630      H1631   0.992       .  S
C1633      C1634   1.407       .  A
C1633      C1638   1.416   1_556  A
C1634      C1635   1.414       .  A
C1634      H1639   1.084       .  S
C1635      C1636   1.415       .  A
C1635      O1640   1.371       .  S
C1636      C1637   1.403   1_556  A
C1637      C1638   1.411       .  A
C1637      H1641   1.084       .  S
C1638      O1642   1.373       .  S
O1640      H1644   0.992       .  S
O1642      H1643   0.992       .  S
C1645      C1646   1.406       .  A
C1645      C1650   1.411       .  A
C1646      C1647   1.414       .  A
C1646      H1651   1.083       .  S
C1647      C1648   1.412       .  A
C1647      O1652   1.370       .  S
C1648      C1649   1.398       .  A
C1649      C1650   1.388       .  A
C1649      H1653   1.085       .  S
C1650      O1654   1.374       .  S
O1652      H1656   0.992       .  S
O1654      H1655   0.992       .  S
C1657      C1658   1.402       .  A
C1657      C1662   1.410       .  A
C1658      C1659   1.398       .  A
C1658      H1663   1.084       .  S
C1659      C1660   1.407       .  A
C1659      O1664   1.372       .  S
C1660      C1661   1.405       .  A
C1661      C1662   1.410       .  A
C1661      H1665   1.083       .  S
C1662      O1666   1.371       .  S
O1664      H1668   0.992       .  S
O1666      H1667   0.992       .  S
C1669      C1670   1.408       .  A
C1669      C1674   1.418       .  A
C1670      C1671   1.403       .  A
C1670      H1675   1.084       .  S
C1671      C1672   1.413   1_556  A
C1671      O1676   1.370   1_556  S
C1672      C1673   1.409   1_554  A
C1673      C1674   1.418       .  A
C1673      H1677   1.083   1_556  S
C1674      O1678   1.371       .  S
O1676      H1680   0.991       .  S
O1678      H1679   0.992       .  S
C1681      C1682   1.397       .  A
C1681      C1686   1.404       .  A
C1682      C1683   1.395       .  A
C1682      H1687   1.084       .  S
C1683      C1684   1.413       .  A
C1683      O1688   1.373       .  S
C1684      C1685   1.404       .  A
C1685      C1686   1.393       .  A
C1685      H1689   1.083       .  S
C1686      O1690   1.372       .  S
O1688      H1692   0.992       .  S
O1690      H1691   0.991       .  S
C1693      C1694   1.396       .  A
C1693      C1698   1.406       .  A
C1694      C1695   1.393       .  A
C1694      H1699   1.084       .  S
C1695      C1696   1.414       .  A
C1695      O1700   1.372       .  S
C1696      C1697   1.401       .  A
C1697      C1698   1.391       .  A
C1697      H1701   1.084       .  S
C1698      O1702   1.372       .  S
O1700      H1704   0.992       .  S
O1702      H1703   0.992       .  S
C1705      C1706   1.408       .  A
C1705      C1710   1.417       .  A
C1706      C1707   1.413       .  A
C1706      H1711   1.083       .  S
C1707      C1708   1.416       .  A
C1707      O1712   1.371       .  S
C1708      C1709   1.404       .  A
C1709      C1710   1.394       .  A
C1709      H1713   1.084       .  S
C1710      O1714   1.373       .  S
O1712      H1716   0.992       .  S
O1714      H1715   0.992   1_556  S
C1717      C1718   1.407       .  A
C1717      C1722   1.416       .  A
C1718      C1719   1.399       .  A
C1718      H1723   1.083       .  S
C1719      C1720   1.404       .  A
C1719      O1724   1.372       .  S
C1720      C1721   1.395       .  A
C1721      C1722   1.396       .  A
C1721      H1725   1.084       .  S
C1722      O1726   1.372   1_554  S
O1724      H1728   0.992       .  S
O1726      H1727   0.992       .  S
C1729      C1730   1.400       .  A
C1729      C1734   1.404       .  A
C1730      C1731   1.397       .  A
C1730      H1735   1.084       .  S
C1731      C1732   1.416       .  A
C1731      O1736   1.372       .  S
C1732      C1733   1.407       .  A
C1733      C1734   1.397       .  A
C1733      H1737   1.084       .  S
C1734      O1738   1.371       .  S
O1736      H1740   0.992       .  S
O1738      H1739   0.991       .  S
C1741      C1742   1.404       .  A
C1741      C1746   1.417       .  A
C1742      C1743   1.415   1_556  A
C1742      H1747   1.083   1_556  S
C1743      C1744   1.421   1_554  A
C1743      O1748   1.371       .  S
C1744      C1745   1.406       .  A
C1745      C1746   1.412       .  A
C1745      H1749   1.083       .  S
C1746      O1750   1.371       .  S
O1748      H1752   0.992       .  S
O1750      H1751   0.992       .  S
C1753      C1754   1.403       .  A
C1753      C1758   1.410       .  A
C1754      C1755   1.394       .  A
C1754      H1759   1.084       .  S
C1755      C1756   1.411       .  A
C1755      O1760   1.372       .  S
C1756      C1757   1.404       .  A
C1757      C1758   1.397       .  A
C1757      H1761   1.084       .  S
C1758      O1762   1.372       .  S
O1760      H1764   0.992       .  S
O1762      H1763   0.992       .  S
C1765      C1766   1.403       .  A
C1765      C1770   1.407       .  A
C1766      C1767   1.399       .  A
C1766      H1771   1.084       .  S
C1767      C1768   1.409       .  A
C1767      O1772   1.371       .  S
C1768      C1769   1.403       .  A
C1769      C1770   1.394       .  A
C1769      H1773   1.084       .  S
C1770      O1774   1.372       .  S
O1772      H1776   0.992       .  S
O1774      H1775   0.992       .  S
C1777      C1778   1.407       .  A
C1777      C1782   1.421       .  A
C1778      C1779   1.420       .  A
C1778      H1783   1.083       .  S
C1779      C1780   1.422       .  A
C1779      O1784   1.371       .  S
C1780      C1781   1.400       .  A
C1781      C1782   1.400       .  A
C1781      H1785   1.084       .  S
C1782      O1786   1.373       .  S
O1784      H1788   0.992       .  S
O1786      H1787   0.992       .  S
C1789      C1790   1.409       .  A
C1789      C1794   1.412       .  A
C1790      C1791   1.411   1_565  A
C1790      H1795   1.084       .  S
C1791      C1792   1.410       .  A
C1791      O1796   1.372       .  S
C1792      C1793   1.408       .  A
C1793      C1794   1.413   1_545  A
C1793      H1797   1.084       .  S
C1794      O1798   1.371       .  S
O1796      H1800   0.992       .  S
O1798      H1799   0.991       .  S
C1801      C1802   1.405       .  A
C1801      C1806   1.400       .  A
C1802      C1803   1.396       .  A
C1802      H1807   1.084       .  S
C1803      C1804   1.406       .  A
C1803      O1808   1.372       .  S
C1804      C1805   1.411       .  A
C1805      C1806   1.394       .  A
C1805      H1809   1.084       .  S
C1806      O1810   1.372       .  S
O1808      H1812   0.992       .  S
O1810      H1811   0.991       .  S
C1813      C1814   1.409       .  A
C1813      C1818   1.410       .  A
C1814      C1815   1.387       .  A
C1814      H1819   1.084       .  S
C1815      C1816   1.400       .  A
C1815      O1820   1.374       .  S
C1816      C1817   1.401       .  A
C1817      C1818   1.395       .  A
C1817      H1821   1.084       .  S
C1818      O1822   1.371       .  S
O1820      H1824   0.992       .  S
O1822      H1823   0.992       .  S
C1825      C1826   1.404       .  A
C1825      C1830   1.409       .  A
C1826      C1827   1.399       .  A
C1826      H1831   1.084       .  S
C1827      C1828   1.404       .  A
C1827      O1832   1.372       .  S
C1828      C1829   1.397       .  A
C1829      C1830   1.394       .  A
C1829      H1833   1.084   1_554  S
C1830      O1834   1.372       .  S
O1832      H1836   0.992       .  S
O1834      H1835   0.992       .  S
C1837      C1838   1.418       .  A
C1837      C1842   1.414       .  A
C1838      C1839   1.426   1_565  A
C1838      H1843   1.083   1_565  S
C1839      C1840   1.413   1_545  A
C1839      O1844   1.370       .  S
C1840      C1841   1.408       .  A
C1841      C1842   1.399       .  A
C1841      H1845   1.084       .  S
C1842      O1846   1.372       .  S
O1844      H1848   0.992       .  S
O1846      H1847   0.992       .  S
C1849      C1850   1.398       .  A
C1849      C1854   1.412       .  A
C1850      C1851   1.401       .  A
C1850      H1855   1.084       .  S
C1851      C1852   1.412       .  A
C1851      O1856   1.372       .  S
C1852      C1853   1.392       .  A
C1853      C1854   1.394       .  A
C1853      H1857   1.084       .  S
C1854      O1858   1.370       .  S
O1856      H1860   0.991       .  S
O1858      H1859   0.990       .  S
C1861      C1862   1.397       .  A
C1861      C1866   1.405       .  A
C1862      C1863   1.394       .  A
C1862      H1867   1.084       .  S
C1863      C1864   1.409       .  A
C1863      O1868   1.373       .  S
C1864      C1865   1.401       .  A
C1865      C1866   1.395       .  A
C1865      H1869   1.084       .  S
C1866      O1870   1.371       .  S
O1868      H1872   0.992       .  S
O1870      H1871   0.991       .  S
C1873      C1874   1.400       .  A
C1873      C1878   1.408       .  A
C1874      C1875   1.384       .  A
C1874      H1879   1.084       .  S
C1875      C1876   1.406       .  A
C1875      O1880   1.374       .  S
C1876      C1877   1.397       .  A
C1877      C1878   1.391       .  A
C1877      H1881   1.084       .  S
C1878      O1882   1.370       .  S
O1880      H1884   0.992       .  S
O1882      H1883   0.992       .  S
C1885      C1886   1.407   1_565  A
C1885      C1890   1.410       .  A
C1886      C1887   1.413       .  A
C1886      H1891   1.084       .  S
C1887      C1888   1.414   1_545  A
C1887      O1892   1.371       .  S
C1888      C1889   1.409       .  A
C1889      C1890   1.411       .  A
C1889      H1893   1.083       .  S
C1890      O1894   1.371       .  S
O1892      H1896   0.991       .  S
O1894      H1895   0.992       .  S
C1897      C1898   1.399       .  A
C1897      C1902   1.410       .  A
C1898      C1899   1.387       .  A
C1898      H1903   1.084       .  S
C1899      C1900   1.410       .  A
C1899      O1904   1.373       .  S
C1900      C1901   1.404       .  A
C1901      C1902   1.400       .  A
C1901      H1905   1.084       .  S
C1902      O1906   1.372       .  S
O1904      H1908   0.992       .  S
O1906      H1907   0.992       .  S
C1909      C1910   1.401       .  A
C1909      C1914   1.406       .  A
C1910      C1911   1.388       .  A
C1910      H1915   1.084       .  S
C1911      C1912   1.409       .  A
C1911      O1916   1.372       .  S
C1912      C1913   1.403       .  A
C1913      C1914   1.391       .  A
C1913      H1917   1.084       .  S
C1914      O1918   1.373       .  S
O1916      H1920   0.992       .  S
O1918      H1919   0.992       .  S
C1921      C1922   1.412       .  A
C1921      C1926   1.409       .  A
C1922      C1923   1.420       .  A
C1922      H1927   1.083       .  S
C1923      C1924   1.411       .  A
C1923      O1928   1.370       .  S
C1924      C1925   1.405       .  A
C1925      C1926   1.393       .  A
C1925      H1929   1.085       .  S
C1926      O1930   1.373       .  S
O1928      H1932   0.992       .  S
O1930      H1931   0.992       .  S
C1933      C1934   1.409       .  A
C1933      C1938   1.411       .  A
C1934      C1935   1.417   1_565  A
C1934      H1939   1.083       .  S
C1935      C1936   1.413       .  A
C1935      O1940   1.371       .  S
C1936      C1937   1.405       .  A
C1937      C1938   1.406   1_545  A
C1937      H1941   1.084       .  S
C1938      O1942   1.372       .  S
O1940      H1944   0.992       .  S
O1942      H1943   0.991       .  S
C1945      C1946   1.394       .  A
C1945      C1950   1.409       .  A
C1946      C1947   1.397       .  A
C1946      H1951   1.084       .  S
C1947      C1948   1.410       .  A
C1947      O1952   1.373       .  S
C1948      C1949   1.395       .  A
C1949      C1950   1.393       .  A
C1949      H1953   1.084       .  S
C1950      O1954   1.372       .  S
O1952      H1956   0.992       .  S
O1954      H1955   0.991       .  S
C1957      C1958   1.397       .  A
C1957      C1962   1.412       .  A
C1958      C1959   1.399       .  A
C1958      H1963   1.084       .  S
C1959      C1960   1.410       .  A
C1959      O1964   1.374       .  S
C1960      C1961   1.395       .  A
C1961      C1962   1.395       .  A
C1961      H1965   1.084       .  S
C1962      O1966   1.371       .  S
O1964      H1968   0.992       .  S
O1966      H1967   0.991       .  S
C1969      C1970   1.405       .  A
C1969      C1974   1.411       .  A
C1970      C1971   1.405       .  A
C1970      H1975   1.083       .  S
C1971      C1972   1.412       .  A
C1971      O1976   1.371       .  S
C1972      C1973   1.401       .  A
C1973      C1974   1.388       .  A
C1973      H1977   1.084       .  S
C1974      O1978   1.373       .  S
O1976      H1980   0.992       .  S
O1978      H1979   0.992       .  S
C1981      C1982   1.407   1_545  A
C1981      C1986   1.415       .  A
C1982      C1983   1.397       .  A
C1982      H1987   1.083       .  S
C1983      C1984   1.413   1_565  A
C1983      O1988   1.372       .  S
C1984      C1985   1.409       .  A
C1985      C1986   1.412       .  A
C1985      H1989   1.083       .  S
C1986      O1990   1.371       .  S
O1988      H1992   0.992       .  S
O1990      H1991   0.992       .  S
C1993      C1994   1.397       .  A
C1993      C1998   1.409       .  A
C1994      C1995   1.398       .  A
C1994      H1999   1.084       .  S
C1995      C1996   1.410       .  A
C1995      O2000   1.371       .  S
C1996      C1997   1.395       .  A
C1997      C1998   1.394       .  A
C1997      H2001   1.084       .  S
C1998      O2002   1.371       .  S
O2000      H2004   0.991       .  S
O2002      H2003   0.992       .  S
C2005      C2006   1.399       .  A
C2005      C2010   1.415       .  A
C2006      C2007   1.401       .  A
C2006      H2011   1.083       .  S
C2007      C2008   1.411       .  A
C2007      O2012   1.373       .  S
C2008      C2009   1.397       .  A
C2009      C2010   1.396       .  A
C2009      H2013   1.084       .  S
C2010      O2014   1.372       .  S
O2012      H2016   0.992       .  S
O2014      H2015   0.991       .  S
C2017      C2018   1.407       .  A
C2017      C2022   1.417       .  A
C2018      C2019   1.407       .  A
C2018      H2023   1.083       .  S
C2019      C2020   1.414       .  A
C2019      O2024   1.371       .  S
C2020      C2021   1.402       .  A
C2021      C2022   1.390       .  A
C2021      H2025   1.084       .  S
C2022      O2026   1.373       .  S
O2024      H2028   0.992       .  S
O2026      H2027   0.992       .  S
C2029      C2030   1.406       .  A
C2029      C2034   1.414   1_545  A
C2030      C2031   1.408       .  A
C2030      H2035   1.084       .  S
C2031      C2032   1.413       .  A
C2031      O2036   1.371       .  S
C2032      C2033   1.408   1_545  A
C2033      C2034   1.416       .  A
C2033      H2037   1.084       .  S
C2034      O2038   1.372       .  S
O2036      H2040   0.992       .  S
O2038      H2039   0.992       .  S
C2041      C2042   1.405       .  A
C2041      C2046   1.412       .  A
C2042      C2043   1.399       .  A
C2042      H2047   1.083       .  S
C2043      C2044   1.410       .  A
C2043      O2048   1.372       .  S
C2044      C2045   1.402       .  A
C2045      C2046   1.389       .  A
C2045      H2049   1.084       .  S
C2046      O2050   1.372       .  S
O2048      H2052   0.992       .  S
O2050      H2051   0.992       .  S
C2053      C2054   1.406       .  A
C2053      C2058   1.418       .  A
C2054      C2055   1.404       .  A
C2054      H2059   1.083       .  S
C2055      C2056   1.419       .  A
C2055      O2060   1.372       .  S
C2056      C2057   1.410       .  A
C2057      C2058   1.415       .  A
C2057      H2061   1.083       .  S
C2058      O2062   1.371       .  S
O2060      H2064   0.992       .  S
O2062      H2063   0.992       .  S
C2065      C2066   1.404       .  A
C2065      C2070   1.405       .  A
C2066      C2067   1.400       .  A
C2066      H2071   1.084       .  S
C2067      C2068   1.407       .  A
C2067      O2072   1.372       .  S
C2068      C2069   1.404       .  A
C2069      C2070   1.394       .  A
C2069      H2073   1.084       .  S
C2070      O2074   1.372       .  S
O2072      H2076   0.992       .  S
O2074      H2075   0.992       .  S
C2077      C2078   1.403       .  A
C2077      C2082   1.422       .  A
C2078      C2079   1.400       .  A
C2078      H2083   1.084       .  S
C2079      C2080   1.417       .  A
C2079      O2084   1.373       .  S
C2080      C2081   1.406       .  A
C2081      C2082   1.421       .  A
C2081      H2085   1.083       .  S
C2082      O2086   1.371       .  S
O2084      H2088   0.992       .  S
O2086      H2087   0.992       .  S
C2089      C2090   1.412       .  A
C2089      C2094   1.413   1_655  A
C2090      C2091   1.423   1_655  A
C2090      H2095   1.083       .  S
C2091      C2092   1.416       .  A
C2091      O2096   1.370       .  S
C2092      C2093   1.407       .  A
C2093      C2094   1.410       .  A
C2093      H2097   1.084       .  S
C2094      O2098   1.372   1_455  S
O2096      H2100   0.991       .  S
O2098      H2099   0.992       .  S
C2101      C2102   1.402       .  A
C2101      C2106   1.401       .  A
C2102      C2103   1.397       .  A
C2102      H2107   1.085       .  S
C2103      C2104   1.410       .  A
C2103      O2108   1.372       .  S
C2104      C2105   1.408       .  A
C2105      C2106   1.392       .  A
C2105      H2109   1.083       .  S
C2106      O2110   1.371       .  S
O2108      H2112   0.991       .  S
O2110      H2111   0.991       .  S
C2113      C2114   1.401       .  A
C2113      C2118   1.402       .  A
C2114      C2115   1.384       .  A
C2114      H2119   1.076       .  S
C2115      C2116   1.397       .  A
C2115      O2120   1.373       .  S
C2116      C2117   1.407       .  A
C2117      C2118   1.400       .  A
C2117      H2121   1.084       .  S
C2118      O2122   1.371       .  S
O2120      H2124   0.992   1_655  S
O2122      H2123   0.992       .  S
C2125      C2126   1.403       .  A
C2125      C2130   1.413       .  A
C2126      C2127   1.395       .  A
C2126      H2131   1.084       .  S
C2127      C2128   1.404       .  A
C2127      O2132   1.372       .  S
C2128      C2129   1.397       .  A
C2129      C2130   1.392       .  A
C2129      H2133   1.084       .  S
C2130      O2134   1.372       .  S
O2132      H2136   0.992       .  S
O2134      H2135   0.992       .  S
C2137      C2138   1.403       .  A
C2137      C2142   1.408       .  A
C2138      C2139   1.394       .  A
C2138      H2143   1.084       .  S
C2139      C2140   1.408       .  A
C2139      O2144   1.372       .  S
C2140      C2141   1.401       .  A
C2141      C2142   1.386       .  A
C2141      H2145   1.084       .  S
C2142      O2146   1.372       .  S
O2144      H2148   0.992       .  S
O2146      H2147   0.992       .  S
C2149      C2150   1.412   1_655  A
C2149      C2154   1.409       .  A
C2150      C2151   1.419       .  A
C2150      H2155   1.083       .  S
C2151      C2152   1.412   1_455  A
C2151      O2156   1.370       .  S
C2152      C2153   1.406       .  A
C2153      C2154   1.400       .  A
C2153      H2157   1.084       .  S
C2154      O2158   1.372       .  S
O2156      H2160   0.991       .  S
O2158      H2159   0.992       .  S
C2161      C2162   1.407       .  A
C2161      C2166   1.403       .  A
C2162      C2163   1.380       .  A
C2162      H2167   1.084       .  S
C2163      C2164   1.404       .  A
C2163      O2168   1.372       .  S
C2164      C2165   1.409       .  A
C2165      C2166   1.389       .  A
C2165      H2169   1.084       .  S
C2166      O2170   1.372       .  S
O2168      H2172   0.992       .  S
O2170      H2171   0.992       .  S
C2173      C2174   1.406       .  A
C2173      C2178   1.412       .  A
C2174      C2175   1.396       .  A
C2174      H2179   1.084       .  S
C2175      C2176   1.404       .  A
C2175      O2180   1.374       .  S
C2176      C2177   1.400       .  A
C2177      C2178   1.395       .  A
C2177      H2181   1.084       .  S
C2178      O2182   1.371       .  S
O2180      H2184   0.992       .  S
O2182      H2183   0.992       .  S
C2185      C2186   1.399       .  A
C2185      C2190   1.408       .  A
C2186      C2187   1.395       .  A
C2186      H2191   1.084       .  S
C2187      C2188   1.407       .  A
C2187      O2192   1.372       .  S
C2188      C2189   1.398       .  A
C2189      C2190   1.388       .  A
C2189      H2193   1.084       .  S
C2190      O2194   1.373       .  S
O2192      H2196   0.992       .  S
O2194      H2195   0.992       .  S
C2197      C2198   1.406       .  A
C2197      C2202   1.409       .  A
C2198      C2199   1.413       .  A
C2198      H2203   1.083       .  S
C2199      C2200   1.412       .  A
C2199      O2204   1.371       .  S
C2200      C2201   1.398       .  A
C2201      C2202   1.387       .  A
C2201      H2205   1.085       .  S
C2202      O2206   1.373       .  S
O2204      H2208   0.992       .  S
O2206      H2207   0.992       .  S
C2209      C2210   1.417   1_455  A
C2209      C2214   1.416       .  A
C2210      C2211   1.427       .  A
C2210      H2215   1.083       .  S
C2211      C2212   1.415   1_655  A
C2211      O2216   1.370       .  S
C2212      C2213   1.405       .  A
C2213      C2214   1.404       .  A
C2213      H2217   1.084       .  S
C2214      O2218   1.372       .  S
O2216      H2220   0.992       .  S
O2218      H2219   0.992       .  S
C2221      C2222   1.401       .  A
C2221      C2226   1.405       .  A
C2222      C2223   1.393       .  A
C2222      H2227   1.084       .  S
C2223      C2224   1.407       .  A
C2223      O2228   1.372       .  S
C2224      C2225   1.403       .  A
C2225      C2226   1.399       .  A
C2225      H2229   1.084       .  S
C2226      O2230   1.371       .  S
O2228      H2232   0.992       .  S
O2230      H2231   0.992       .  S
C2233      C2234   1.404       .  A
C2233      C2238   1.408       .  A
C2234      C2235   1.394       .  A
C2234      H2239   1.084       .  S
C2235      C2236   1.407       .  A
C2235      O2240   1.372       .  S
C2236      C2237   1.404       .  A
C2237      C2238   1.404       .  A
C2237      H2241   1.084       .  S
C2238      O2242   1.372       .  S
O2240      H2244   0.991       .  S
O2242      H2243   0.992       .  S
C2245      C2246   1.406       .  A
C2245      C2250   1.417       .  A
C2246      C2247   1.404       .  A
C2246      H2251   1.084       .  S
C2247      C2248   1.412       .  A
C2247      O2252   1.372       .  S
C2248      C2249   1.406       .  A
C2249      C2250   1.416       .  A
C2249      H2253   1.083       .  S
C2250      O2254   1.371       .  S
O2252      H2256   0.992       .  S
O2254      H2255   0.992       .  S
C2257      C2258   1.408       .  A
C2257      C2262   1.412       .  A
C2258      C2259   1.419       .  A
C2258      H2263   1.083       .  S
C2259      C2260   1.416   1_556  A
C2259      O2264   1.371   1_556  S
C2260      C2261   1.406   1_554  A
C2261      C2262   1.407       .  A
C2261      H2265   1.084   1_556  S
C2262      O2266   1.372       .  S
O2264      H2268   0.992       .  S
O2266      H2267   0.992       .  S
C2269      C2270   1.398       .  A
C2269      C2274   1.403       .  A
C2270      C2271   1.396       .  A
C2270      H2275   1.085       .  S
C2271      C2272   1.414       .  A
C2271      O2276   1.372       .  S
C2272      C2273   1.406       .  A
C2273      C2274   1.394       .  A
C2273      H2277   1.083       .  S
C2274      O2278   1.371       .  S
O2276      H2280   0.992       .  S
O2278      H2279   0.991       .  S
C2281      C2282   1.399       .  A
C2281      C2286   1.409       .  A
C2282      C2283   1.404       .  A
C2282      H2287   1.084       .  S
C2283      C2284   1.411       .  A
C2283      O2288   1.373       .  S
C2284      C2285   1.396       .  A
C2285      C2286   1.393       .  A
C2285      H2289   1.084       .  S
C2286      O2290   1.371       .  S
O2288      H2292   0.992       .  S
O2290      H2291   0.992       .  S
C2293      C2294   1.406       .  A
C2293      C2298   1.411       .  A
C2294      C2295   1.409       .  A
C2294      H2299   1.083       .  S
C2295      C2296   1.412       .  A
C2295      O2300   1.371       .  S
C2296      C2297   1.401       .  A
C2297      C2298   1.391       .  A
C2297      H2301   1.084       .  S
C2298      O2302   1.373       .  S
O2300      H2304   0.992       .  S
O2302      H2303   0.992       .  S
C2305      C2306   1.412       .  A
C2305      C2310   1.410       .  A
C2306      C2307   1.404       .  A
C2306      H2311   1.083       .  S
C2307      C2308   1.410       .  A
C2307      O2312   1.371       .  S
C2308      C2309   1.414       .  A
C2309      C2310   1.409       .  A
C2309      H2313   1.083       .  S
C2310      O2314   1.371       .  S
O2312      H2316   0.992   1_556  S
O2314      H2315   0.992       .  S
C2317      C2318   1.400       .  A
C2317      C2322   1.403       .  A
C2318      C2319   1.395       .  A
C2318      H2323   1.084       .  S
C2319      C2320   1.407       .  A
C2319      O2324   1.372       .  S
C2320      C2321   1.406       .  A
C2321      C2322   1.398       .  A
C2321      H2325   1.084       .  S
C2322      O2326   1.372   1_554  S
O2324      H2328   0.992       .  S
O2326      H2327   0.992       .  S
C2329      C2330   1.404       .  A
C2329      C2334   1.400       .  A
C2330      C2331   1.396       .  A
C2330      H2335   1.084       .  S
C2331      C2332   1.405       .  A
C2331      O2336   1.372       .  S
C2332      C2333   1.405       .  A
C2333      C2334   1.393       .  A
C2333      H2337   1.084       .  S
C2334      O2338   1.371       .  S
O2336      H2340   0.991       .  S
O2338      H2339   0.991       .  S
C2341      C2342   1.403       .  A
C2341      C2346   1.422       .  A
C2342      C2343   1.397       .  A
C2342      H2347   1.083       .  S
C2343      C2344   1.410       .  A
C2343      O2348   1.371       .  S
C2344      C2345   1.393       .  A
C2345      C2346   1.393       .  A
C2345      H2349   1.084       .  S
C2346      O2350   1.373       .  S
O2348      H2352   0.991       .  S
O2350      H2351   0.993       .  S
C2353      C2354   1.413       .  A
C2353      C2358   1.409   1_556  A
C2354      C2355   1.409       .  A
C2354      H2359   1.084       .  S
C2355      C2356   1.406       .  A
C2355      O2360   1.371       .  S
C2356      C2357   1.410   1_556  A
C2357      C2358   1.411       .  A
C2357      H2361   1.084       .  S
C2358      O2362   1.372       .  S
O2360      H2364   0.992       .  S
O2362      H2363   0.992       .  S
C2365      C2366   1.406       .  A
C2365      C2370   1.413       .  A
C2366      C2367   1.406       .  A
C2366      H2371   1.083       .  S
C2367      C2368   1.412       .  A
C2367      O2372   1.371       .  S
C2368      C2369   1.403       .  A
C2369      C2370   1.397       .  A
C2369      H2373   1.084       .  S
C2370      O2374   1.373       .  S
O2372      H2376   0.992       .  S
O2374      H2375   0.992       .  S
C2377      C2378   1.403       .  A
C2377      C2382   1.410       .  A
C2378      C2379   1.389       .  A
C2378      H2383   1.084       .  S
C2379      C2380   1.411       .  A
C2379      O2384   1.372       .  S
C2380      C2381   1.406       .  A
C2381      C2382   1.398       .  A
C2381      H2385   1.083       .  S
C2382      O2386   1.372       .  S
O2384      H2388   0.992       .  S
O2386      H2387   0.992       .  S
C2389      C2390   1.400       .  A
C2389      C2394   1.412       .  A
C2390      C2391   1.391       .  A
C2390      H2395   1.084       .  S
C2391      C2392   1.408       .  A
C2391      O2396   1.372       .  S
C2392      C2393   1.400       .  A
C2393      C2394   1.398       .  A
C2393      H2397   1.084       .  S
C2394      O2398   1.371       .  S
O2396      H2400   0.991       .  S
O2398      H2399   0.992       .  S
C2401      C2402   1.408       .  A
C2401      C2406   1.406       .  A
C2402      C2403   1.393       .  A
C2402      H2407   1.084       .  S
C2403      C2404   1.403       .  A
C2403      O2408   1.372       .  S
C2404      C2405   1.405       .  A
C2405      C2406   1.389       .  A
C2405      H2409   1.084       .  S
C2406      O2410   1.372       .  S
O2408      H2412   0.992       .  S
O2410      H2411   0.992       .  S
C2413      C2414   1.404       .  A
C2413      C2418   1.417       .  A
C2414      C2415   1.398       .  A
C2414      H2419   1.084       .  S
C2415      C2416   1.416       .  A
C2415      O2420   1.372       .  S
C2416      C2417   1.406       .  A
C2417      C2418   1.414       .  A
C2417      H2421   1.083       .  S
C2418      O2422   1.371       .  S
O2420      H2424   0.992       .  S
O2422      H2423   0.992       .  S
C2425      C2426   1.409       .  A
C2425      C2430   1.408       .  A
C2426      C2427   1.413       .  A
C2426      H2431   1.084       .  S
C2427      C2428   1.410   1_556  A
C2427      O2432   1.371   1_556  S
C2428      C2429   1.409   1_554  A
C2429      C2430   1.405       .  A
C2429      H2433   1.084   1_556  S
C2430      O2434   1.372       .  S
O2432      H2436   0.991       .  S
O2434      H2435   0.991       .  S
C2437      C2438   1.405       .  A
C2437      C2442   1.409       .  A
C2438      C2439   1.395       .  A
C2438      H2443   1.081       .  S
C2439      C2440   1.403       .  A
C2439      O2444   1.372       .  S
C2440      C2441   1.405       .  A
C2441      C2442   1.401       .  A
C2441      H2445   1.084       .  S
C2442      O2446   1.371       .  S
O2444      H2448   0.991       .  S
O2446      H2447   0.992       .  S
C2449      C2450   1.407       .  A
C2449      C2454   1.404       .  A
C2450      C2451   1.392       .  A
C2450      H2455   1.084       .  S
C2451      C2452   1.403       .  A
C2451      O2456   1.371       .  S
C2452      C2453   1.407       .  A
C2453      C2454   1.393       .  A
C2453      H2457   1.084       .  S
C2454      O2458   1.371       .  S
O2456      H2460   0.991       .  S
O2458      H2459   0.991       .  S
C2461      C2462   1.402       .  A
C2461      C2466   1.403       .  A
C2462      C2463   1.400       .  A
C2462      H2467   1.084       .  S
C2463      C2464   1.411       .  A
C2463      O2468   1.371       .  S
C2464      C2465   1.407       .  A
C2465      C2466   1.389       .  A
C2465      H2469   1.084       .  S
C2466      O2470   1.373       .  S
O2468      H2472   0.992       .  S
O2470      H2471   0.992       .  S
C2473      C2474   1.408       .  A
C2473      C2478   1.419       .  A
C2474      C2475   1.412       .  A
C2474      H2479   1.083       .  S
C2475      C2476   1.417       .  A
C2475      O2480   1.371       .  S
C2476      C2477   1.406       .  A
C2477      C2478   1.403       .  A
C2477      H2481   1.084       .  S
C2478      O2482   1.372       .  S
O2480      H2484   0.992       .  S
O2482      H2483   0.992       .  S
C2485      C2486   1.407       .  A
C2485      C2490   1.400       .  A
C2486      C2487   1.401       .  A
C2486      H2491   1.084       .  S
C2487      C2488   1.406       .  A
C2487      O2492   1.371       .  S
C2488      C2489   1.406       .  A
C2489      C2490   1.393       .  A
C2489      H2493   1.083       .  S
C2490      O2494   1.371       .  S
O2492      H2496   0.992       .  S
O2494      H2495   0.991       .  S
C2497      C2498   1.401       .  A
C2497      C2502   1.411       .  A
C2498      C2499   1.405       .  A
C2498      H2503   1.083       .  S
C2499      C2500   1.413       .  A
C2499      O2504   1.372       .  S
C2500      C2501   1.398       .  A
C2501      C2502   1.399       .  A
C2501      H2505   1.084       .  S
C2502      O2506   1.371       .  S
O2504      H2508   0.992       .  S
O2506      H2507   0.992       .  S
C2509      C2510   1.401       .  A
C2509      C2514   1.411       .  A
C2510      C2511   1.397       .  A
C2510      H2515   1.084       .  S
C2511      C2512   1.410       .  A
C2511      O2516   1.374       .  S
C2512      C2513   1.404       .  A
C2513      C2514   1.406       .  A
C2513      H2517   1.084       .  S
C2514      O2518   1.371       .  S
O2516      H2520   0.992       .  S
O2518      H2519   0.992       .  S
C2521      C2522   1.411       .  A
C2521      C2526   1.415       .  A
C2522      C2523   1.411       .  A
C2522      H2527   1.083       .  S
C2523      C2524   1.416       .  A
C2523      O2528   1.371       .  S
C2524      C2525   1.410       .  A
C2525      C2526   1.407       .  A
C2525      H2529   1.083       .  S
C2526      O2530   1.372       .  S
O2528      H2532   0.992       .  S
O2530      H2531   0.992       .  S
C2533      C2534   1.408   1_556  A
C2533      C2538   1.410       .  A
C2534      C2535   1.411       .  A
C2534      H2539   1.084       .  S
C2535      C2536   1.411   1_554  A
C2535      O2540   1.371       .  S
C2536      C2537   1.409       .  A
C2537      C2538   1.413       .  A
C2537      H2541   1.084       .  S
C2538      O2542   1.372       .  S
O2540      H2544   0.992       .  S
O2542      H2543   0.992       .  S
C2545      C2546   1.407       .  A
C2545      C2550   1.415       .  A
C2546      C2547   1.408       .  A
C2546      H2551   1.083       .  S
C2547      C2548   1.413       .  A
C2547      O2552   1.371       .  S
C2548      C2549   1.403       .  A
C2549      C2550   1.388       .  A
C2549      H2553   1.084       .  S
C2550      O2554   1.373       .  S
O2552      H2556   0.992       .  S
O2554      H2555   0.992       .  S
C2557      C2558   1.401       .  A
C2557      C2562   1.408       .  A
C2558      C2559   1.391       .  A
C2558      H2563   1.084       .  S
C2559      C2560   1.409       .  A
C2559      O2564   1.372       .  S
C2560      C2561   1.403       .  A
C2561      C2562   1.395       .  A
C2561      H2565   1.084       .  S
C2562      O2566   1.372       .  S
O2564      H2568   0.992       .  S
O2566      H2567   0.992       .  S
C2569      C2570   1.409       .  A
C2569      C2574   1.412       .  A
C2570      C2571   1.415       .  A
C2570      H2575   1.083       .  S
C2571      C2572   1.413       .  A
C2571      O2576   1.371       .  S
C2572      C2573   1.408       .  A
C2573      C2574   1.407       .  A
C2573      H2577   1.084       .  S
C2574      O2578   1.372       .  S
O2576      H2580   0.991       .  S
O2578      H2579   0.992       .  S
C2581      C2582   1.405       .  A
C2581      C2586   1.407       .  A
C2582      C2583   1.395       .  A
C2582      H2587   1.084       .  S
C2583      C2584   1.408       .  A
C2583      O2588   1.372       .  S
C2584      C2585   1.406       .  A
C2585      C2586   1.395       .  A
C2585      H2589   1.084       .  S
C2586      O2590   1.372       .  S
O2588      H2592   0.992       .  S
O2590      H2591   0.992       .  S
C2593      C2594   1.406       .  A
C2593      C2598   1.410       .  A
C2594      C2595   1.393       .  A
C2594      H2599   1.083       .  S
C2595      C2596   1.406       .  A
C2595      O2600   1.372       .  S
C2596      C2597   1.403       .  A
C2597      C2598   1.395       .  A
C2597      H2601   1.084       .  S
C2598      O2602   1.372       .  S
O2600      H2604   0.992       .  S
O2602      H2603   0.992       .  S
C2605      C2606   1.409       .  A
C2605      C2610   1.412       .  A
C2606      C2607   1.401       .  A
C2606      H2611   1.084       .  S
C2607      C2608   1.408       .  A
C2607      O2612   1.372       .  S
C2608      C2609   1.413       .  A
C2609      C2610   1.421       .  A
C2609      H2613   1.083       .  S
C2610      O2614   1.370       .  S
O2612      H2616   0.992       .  S
O2614      H2615   0.991       .  S
C2617      C2618   1.407       .  A
C2617      C2622   1.413       .  A
C2618      C2619   1.415   1_545  A
C2618      H2623   1.083       .  S
C2619      C2620   1.414       .  A
C2619      O2624   1.371       .  S
C2620      C2621   1.408       .  A
C2621      C2622   1.411   1_565  A
C2621      H2625   1.084       .  S
C2622      O2626   1.372       .  S
O2624      H2628   0.992       .  S
O2626      H2627   0.992       .  S
C2629      C2630   1.396       .  A
C2629      C2634   1.409       .  A
C2630      C2631   1.392       .  A
C2630      H2635   1.084       .  S
C2631      C2632   1.409       .  A
C2631      O2636   1.372       .  S
C2632      C2633   1.397       .  A
C2633      C2634   1.395       .  A
C2633      H2637   1.084       .  S
C2634      O2638   1.374       .  S
O2636      H2640   0.992       .  S
O2638      H2639   0.993       .  S
C2641      C2642   1.406       .  A
C2641      C2646   1.403       .  A
C2642      C2643   1.411       .  A
C2642      H2647   1.083       .  S
C2643      C2644   1.413       .  A
C2643      O2648   1.371       .  S
C2644      C2645   1.404       .  A
C2645      C2646   1.387       .  A
C2645      H2649   1.083       .  S
C2646      O2650   1.374   1_565  S
O2648      H2652   0.992       .  S
O2650      H2651   0.992       .  S
C2653      C2654   1.397       .  A
C2653      C2658   1.412       .  A
C2654      C2655   1.397       .  A
C2654      H2659   1.084       .  S
C2655      C2656   1.420       .  A
C2655      O2660   1.372       .  S
C2656      C2657   1.403       .  A
C2657      C2658   1.398       .  A
C2657      H2661   1.083       .  S
C2658      O2662   1.372       .  S
O2660      H2664   0.992       .  S
O2662      H2663   0.992       .  S
C2665      C2666   1.400       .  A
C2665      C2670   1.409       .  A
C2666      C2667   1.395       .  A
C2666      H2671   1.084       .  S
C2667      C2668   1.411       .  A
C2667      O2672   1.372       .  S
C2668      C2669   1.400       .  A
C2669      C2670   1.387       .  A
C2669      H2673   1.084       .  S
C2670      O2674   1.373       .  S
O2672      H2676   0.992       .  S
O2674      H2675   0.992       .  S
C2677      C2678   1.412       .  A
C2677      C2682   1.415       .  A
C2678      C2679   1.414       .  A
C2678      H2683   1.083       .  S
C2679      C2680   1.416       .  A
C2679      O2684   1.371       .  S
C2680      C2681   1.410       .  A
C2681      C2682   1.407       .  A
C2681      H2685   1.083       .  S
C2682      O2686   1.371       .  S
O2684      H2688   0.992   1_565  S
O2686      H2687   0.992       .  S
C2689      C2690   1.407       .  A
C2689      C2694   1.404       .  A
C2690      C2691   1.406       .  A
C2690      H2695   1.084       .  S
C2691      C2692   1.406       .  A
C2691      O2696   1.371       .  S
C2692      C2693   1.401       .  A
C2693      C2694   1.391       .  A
C2693      H2697   1.079       .  S
C2694      O2698   1.374       .  S
O2696      H2700   0.992       .  S
O2698      H2699   0.992       .  S
C2701      C2702   1.406       .  A
C2701      C2706   1.402       .  A
C2702      C2703   1.395       .  A
C2702      H2707   1.084       .  S
C2703      C2704   1.404       .  A
C2703      O2708   1.373       .  S
C2704      C2705   1.410       .  A
C2705      C2706   1.395       .  A
C2705      H2709   1.084       .  S
C2706      O2710   1.372       .  S
O2708      H2712   0.992       .  S
O2710      H2711   0.992       .  S
C2713      C2714   1.407       .  A
C2713      C2718   1.414       .  A
C2714      C2715   1.406       .  A
C2714      H2719   1.083       .  S
C2715      C2716   1.412       .  A
C2715      O2720   1.371       .  S
C2716      C2717   1.403       .  A
C2717      C2718   1.390       .  A
C2717      H2721   1.084       .  S
C2718      O2722   1.372       .  S
O2720      H2724   0.992       .  S
O2722      H2723   0.992       .  S
C2725      C2726   1.401       .  A
C2725      C2730   1.400       .  A
C2726      C2727   1.396       .  A
C2726      H2731   1.084       .  S
C2727      C2728   1.409       .  A
C2727      O2732   1.371       .  S
C2728      C2729   1.406       .  A
C2729      C2730   1.386       .  A
C2729      H2733   1.084       .  S
C2730      O2734   1.372       .  S
O2732      H2736   0.992       .  S
O2734      H2735   0.992       .  S
C2737      C2738   1.411       .  A
C2737      C2742   1.412       .  A
C2738      C2739   1.416       .  A
C2738      H2743   1.083       .  S
C2739      C2740   1.415       .  A
C2739      O2744   1.371       .  S
C2740      C2741   1.406       .  A
C2741      C2742   1.394       .  A
C2741      H2745   1.084   1_545  S
C2742      O2746   1.371   1_545  S
O2744      H2748   0.992       .  S
O2746      H2747   0.992       .  S
C2749      C2750   1.410   1_545  A
C2749      C2754   1.410       .  A
C2750      C2751   1.411       .  A
C2750      H2755   1.084       .  S
C2751      C2752   1.411   1_565  A
C2751      O2756   1.373       .  S
C2752      C2753   1.408       .  A
C2753      C2754   1.404       .  A
C2753      H2757   1.084       .  S
C2754      O2758   1.369       .  S
O2756      H2760   0.992       .  S
O2758      H2759   0.991       .  S
C2761      C2762   1.404       .  A
C2761      C2766   1.408       .  A
C2762      C2763   1.398       .  A
C2762      H2767   1.084       .  S
C2763      C2764   1.410       .  A
C2763      O2768   1.371       .  S
C2764      C2765   1.404       .  A
C2765      C2766   1.393       .  A
C2765      H2769   1.084       .  S
C2766      O2770   1.373       .  S
O2768      H2772   0.992       .  S
O2770      H2771   0.992       .  S
C2773      C2774   1.400       .  A
C2773      C2778   1.404       .  A
C2774      C2775   1.392       .  A
C2774      H2779   1.084       .  S
C2775      C2776   1.404       .  A
C2775      O2780   1.372       .  S
C2776      C2777   1.403       .  A
C2777      C2778   1.392       .  A
C2777      H2781   1.084       .  S
C2778      O2782   1.373       .  S
O2780      H2784   0.992       .  S
O2782      H2783   0.992       .  S
C2785      C2786   1.410       .  A
C2785      C2790   1.413       .  A
C2786      C2787   1.411       .  A
C2786      H2791   1.083       .  S
C2787      C2788   1.413       .  A
C2787      O2792   1.371       .  S
C2788      C2789   1.409       .  A
C2789      C2790   1.405       .  A
C2789      H2793   1.083       .  S
C2790      O2794   1.372       .  S
O2792      H2796   0.992       .  S
O2794      H2795   0.992       .  S
C2797      C2798   1.400       .  A
C2797      C2802   1.412       .  A
C2798      C2799   1.397       .  A
C2798      H2803   1.084       .  S
C2799      C2800   1.412       .  A
C2799      O2804   1.374       .  S
C2800      C2801   1.404       .  A
C2801      C2802   1.406       .  A
C2801      H2805   1.083       .  S
C2802      O2806   1.372       .  S
O2804      H2808   0.992       .  S
O2806      H2807   0.992       .  S
C2809      C2810   1.400       .  A
C2809      C2814   1.407       .  A
C2810      C2811   1.384       .  A
C2810      H2815   1.084       .  S
C2811      C2812   1.406       .  A
C2811      O2816   1.373       .  S
C2812      C2813   1.404       .  A
C2813      C2814   1.398       .  A
C2813      H2817   1.084       .  S
C2814      O2818   1.372       .  S
O2816      H2820   0.992       .  S
O2818      H2819   0.992       .  S
C2821      C2822   1.409       .  A
C2821      C2826   1.420       .  A
C2822      C2823   1.410       .  A
C2822      H2827   1.083       .  S
C2823      C2824   1.420       .  A
C2823      O2828   1.372       .  S
C2824      C2825   1.410       .  A
C2825      C2826   1.418       .  A
C2825      H2829   1.083       .  S
C2826      O2830   1.371       .  S
O2828      H2832   0.992       .  S
O2830      H2831   0.992       .  S
C2833      C2834   1.410       .  A
C2833      C2838   1.414       .  A
C2834      C2835   1.418   1_455  A
C2834      H2839   1.083       .  S
C2835      C2836   1.414       .  A
C2835      O2840   1.371       .  S
C2836      C2837   1.408       .  A
C2837      C2838   1.414   1_655  A
C2837      H2841   1.084       .  S
C2838      O2842   1.372       .  S
O2840      H2844   0.991       .  S
O2842      H2843   0.992       .  S
C2845      C2846   1.406       .  A
C2845      C2850   1.399       .  A
C2846      C2847   1.399       .  A
C2846      H2851   1.084       .  S
C2847      C2848   1.400       .  A
C2847      O2852   1.371       .  S
C2848      C2849   1.403       .  A
C2849      C2850   1.389       .  A
C2849      H2853   1.082       .  S
C2850      O2854   1.372       .  S
O2852      H2856   0.992       .  S
O2854      H2855   0.991       .  S
C2857      C2858   1.396       .  A
C2857      C2862   1.411       .  A
C2858      C2859   1.394       .  A
C2858      H2863   1.084       .  S
C2859      C2860   1.408       .  A
C2859      O2864   1.374       .  S
C2860      C2861   1.395       .  A
C2861      C2862   1.393       .  A
C2861      H2865   1.084       .  S
C2862      O2866   1.372       .  S
O2864      H2868   0.992       .  S
O2866      H2867   0.991       .  S
C2869      C2870   1.407       .  A
C2869      C2874   1.408       .  A
C2870      C2871   1.394       .  A
C2870      H2875   1.084       .  S
C2871      C2872   1.404       .  A
C2871      O2876   1.372       .  S
C2872      C2873   1.401       .  A
C2873      C2874   1.389       .  A
C2873      H2877   1.084       .  S
C2874      O2878   1.372       .  S
O2876      H2880   0.992       .  S
O2878      H2879   0.992       .  S
C2881      C2882   1.399       .  A
C2881      C2886   1.419       .  A
C2882      C2883   1.395       .  A
C2882      H2887   1.083       .  S
C2883      C2884   1.413       .  A
C2883      O2888   1.373       .  S
C2884      C2885   1.397       .  A
C2885      C2886   1.395       .  A
C2885      H2889   1.084       .  S
C2886      O2890   1.372       .  S
O2888      H2892   0.992       .  S
O2890      H2891   0.992       .  S
C2893      C2894   1.411   1_655  A
C2893      C2898   1.420       .  A
C2894      C2895   1.419       .  A
C2894      H2899   1.083       .  S
C2895      C2896   1.420   1_455  A
C2895      O2900   1.371       .  S
C2896      C2897   1.408       .  A
C2897      C2898   1.409       .  A
C2897      H2901   1.083       .  S
C2898      O2902   1.372       .  S
O2900      H2904   0.992       .  S
O2902      H2903   0.992       .  S
C2905      C2906   1.396       .  A
C2905      C2910   1.410       .  A
C2906      C2907   1.392       .  A
C2906      H2911   1.085       .  S
C2907      C2908   1.417       .  A
C2907      O2912   1.373       .  S
C2908      C2909   1.398       .  A
C2909      C2910   1.397       .  A
C2909      H2913   1.083       .  S
C2910      O2914   1.371       .  S
O2912      H2916   0.991       .  S
O2914      H2915   0.992       .  S
C2917      C2918   1.403       .  A
C2917      C2922   1.401       .  A
C2918      C2919   1.392       .  A
C2918      H2923   1.082       .  S
C2919      C2920   1.402       .  A
C2919      O2924   1.372       .  S
C2920      C2921   1.406       .  A
C2921      C2922   1.398       .  A
C2921      H2925   1.084       .  S
C2922      O2926   1.371       .  S
O2924      H2928   0.991       .  S
O2926      H2927   0.992       .  S
C2929      C2930   1.401       .  A
C2929      C2934   1.414       .  A
C2930      C2931   1.392       .  A
C2930      H2935   1.084       .  S
C2931      C2932   1.415       .  A
C2931      O2936   1.372       .  S
C2932      C2933   1.408       .  A
C2933      C2934   1.411       .  A
C2933      H2937   1.083       .  S
C2934      O2938   1.371       .  S
O2936      H2940   0.991       .  S
O2938      H2939   0.992       .  S
C2941      C2942   1.404       .  A
C2941      C2946   1.402       .  A
C2942      C2943   1.397       .  A
C2942      H2947   1.084       .  S
C2943      C2944   1.410       .  A
C2943      O2948   1.371       .  S
C2944      C2945   1.411       .  A
C2945      C2946   1.396       .  A
C2945      H2949   1.083       .  S
C2946      O2950   1.372       .  S
O2948      H2952   0.992       .  S
O2950      H2951   0.992       .  S
C2953      C2954   1.403       .  A
C2953      C2958   1.417   1_455  A
C2954      C2955   1.404       .  A
C2954      H2959   1.084       .  S
C2955      C2956   1.415       .  A
C2955      O2960   1.372       .  S
C2956      C2957   1.409   1_455  A
C2957      C2958   1.421       .  A
C2957      H2961   1.083       .  S
C2958      O2962   1.370       .  S
O2960      H2964   0.991       .  S
O2962      H2963   0.991       .  S
C2965      C2966   1.408   1_655  A
C2965      C2970   1.417       .  A
C2966      C2967   1.416       .  A
C2966      H2971   1.084       .  S
C2967      C2968   1.415   1_455  A
C2967      O2972   1.371       .  S
C2968      C2969   1.409       .  A
C2969      C2970   1.419       .  A
C2969      H2973   1.084       .  S
C2970      O2974   1.371       .  S
O2972      H2976   0.992       .  S
O2974      H2975   0.991       .  S
