geometry optimzed in LAMMPS
_audit_creation_date              2020-12-01 
_audit_creation_method            'lammps2cif' 
_symmetry_space_group_name_H-M    'P1' 
_symmetry_Int_Tables_number       1 
_symmetry_cell_setting            triclinic 
loop_ 
_symmetry_equiv_pos_as_xyz 
  x,y,z 
_cell_length_a                    35.9856451 
_cell_length_b                    35.95274602356592 
_cell_length_c                    65.67679411988125 
_cell_angle_alpha                 90.01377882608143 
_cell_angle_beta                  90.00446490955733 
_cell_angle_gamma                 120.1146610503748 
loop_ 
_atom_site_label 
_atom_site_type_symbol 
_atom_site_fract_x 
_atom_site_fract_y 
_atom_site_fract_z 
_atom_site_charge 
O1          O  0.25485639  0.36457153  0.47841288    -0.77600
C2          C  0.17297402  0.42301399  0.47233458     0.83400
O3          O  0.21704584  0.39042086  0.54734853    -0.78700
O4          O  0.08058493  0.33834258  0.51850214    -0.80200
O5          O  0.10566008  0.24453549  0.47686557    -0.80000
O6          O  0.21336658  0.29326011  0.47746257    -0.78600
Zn7        Zn  0.21848570  0.38251173  0.49480520     1.55700
O8          O  0.07592758  0.28595139  0.47791248    -0.80000
Cd9        Cd  0.16033184  0.28045514  0.49429669     1.59700
Cd10       Cd  0.16546042  0.33310752  0.53617756     1.59600
O11         O  0.16139858  0.24415357  0.51794282    -0.80000
O12         O  0.16614908  0.33453200  0.50520287    -1.90500
Cd13       Cd  0.11707671  0.33928826  0.49459625     1.59900
O14         O  0.17087209  0.28083673  0.54678845    -0.80000
O15         O  0.13525595  0.39356834  0.47704872    -0.78600
C16         C  0.24793951  0.42072531  0.53744478     0.83900
C17         C  0.24795726  0.32760005  0.47300977     0.83500
O18         O  0.20616832  0.42163169  0.47784856    -0.77600
C19         C  0.07544037  0.25177210  0.47242451     0.84400
O20         O  0.25168667  0.41894539  0.51824007    -0.77700
C21         C  0.16826757  0.24882523  0.53705232     0.84500
C22         C  0.07851474  0.33042891  0.53749482     0.84800
O23         O  0.10781701  0.32717417  0.54692878    -0.80100
C24         C  0.29190457  0.34702467  0.37774215     0.04000
C25         C  0.33248401  0.37434003  0.36967921    -0.12200
C26         C  0.36997299  0.38538973  0.38077617     0.01500
C27         C  0.36637481  0.36915771  0.40067593    -0.10700
C28         C  0.32527372  0.34108056  0.40888214     0.04000
C29         C  0.28832798  0.32949289  0.39707528    -0.10100
H30         H  0.33474969  0.38814110  0.35471277     0.09600
H31         H  0.39489501  0.37897934  0.40979677     0.07100
H32         H  0.25667912  0.30895346  0.40348109     0.07000
C33         C  0.31984192  0.28407696  0.45865617     0.04000
C34         C  0.33193348  0.29995904  0.43865608    -0.12200
C35         C  0.31907764  0.32826151  0.43057701     0.01500
C36         C  0.29430634  0.34024686  0.44256056    -0.10700
C37         C  0.28093168  0.32309310  0.46198100     0.04000
C38         C  0.29424409  0.29581760  0.46996763    -0.10100
H39         H  0.35003425  0.28970375  0.42937554     0.09600
H40         H  0.28292144  0.36054738  0.43618895     0.07100
H41         H  0.28284151  0.28206877  0.48496007     0.07000
C42         C  0.01127368  0.12758185  0.38091298     0.04000
C43         C  0.49833975  0.13135717  0.40070940    -0.12200
C44         C  0.01124900  0.17262990  0.40869076     0.01500
C45         C  0.03671296  0.20941800  0.39679882    -0.10700
C46         C  0.05104906  0.20557195  0.37764545     0.04000
C47         C  0.03792082  0.16491751  0.36976696    -0.10100
H48         H  0.47944120  0.10292518  0.40987733     0.09600
H49         H  0.04775989  0.24119668  0.40305377     0.07100
H50         H  0.04966220  0.16244320  0.35488989     0.07000
C51         C  0.45967592  0.18017249  0.45791052     0.04000
C52         C  0.46336146  0.16692644  0.43817189    -0.12200
C53         C  0.00453972  0.17942787  0.43025221     0.01500
C54         C  0.04134669  0.20479139  0.44215537    -0.10700
C55         C  0.03763883  0.21948353  0.46125049     0.04000
C56         C  0.49704464  0.20673918  0.46906231    -0.10100
H57         H  0.43493510  0.14811302  0.42899193     0.09600
H58         H  0.07305769  0.21557842  0.43592332     0.07100
H59         H  0.49464841  0.21873014  0.48389101     0.07000
C60         C  0.17925524  0.46092943  0.46099499     0.04000
C61         C  0.16151642  0.45725707  0.44171696    -0.12200
C62         C  0.17299374  0.49415309  0.42988256     0.01500
C63         C  0.20112845  0.03536649  0.43804163    -0.10700
C64         C  0.21754465  0.03906410  0.45792813     0.04000
C65         C  0.20659864  0.50156283  0.46902809    -0.10100
H66         H  0.14088797  0.42553848  0.43536404     0.09600
H67         H  0.21083958  0.06386823  0.42891043     0.07100
H68         H  0.22049540  0.50386158  0.48397297     0.07000
C69         C  0.11474479  0.98769397  0.38035566     0.04000
C70         C  0.13123766  0.00034443  0.40023527    -0.12200
C71         C  0.15973173  0.98765130  0.40822027     0.01500
C72         C  0.17134961  0.46250552  0.39624447    -0.10700
C73         C  0.15357970  0.44856259  0.37695400     0.04000
C74         C  0.12607525  0.46168134  0.36908387    -0.10100
H75         H  0.12132774  0.01876931  0.40949559     0.09600
H76         H  0.19183680  0.45128518  0.40254086     0.07100
H77         H  0.11192235  0.44995481  0.35418362     0.07000
O78         O  0.19506128  0.42244348  0.36054328    -0.77600
C79         C  0.25397542  0.34066075  0.36638842     0.83400
O80         O  0.22103475  0.38461931  0.29158179    -0.78700
O81         O  0.16864315  0.24796646  0.32000761    -0.80200
O82         O  0.07568206  0.27331099  0.36186324    -0.80000
O83         O  0.12381198  0.38100095  0.36130066    -0.78600
Zn84       Zn  0.21309435  0.38610660  0.34412228     1.55700
O85         O  0.11735522  0.24383807  0.36093073    -0.80000
Cd86       Cd  0.11121064  0.32793535  0.34442602     1.59700
Cd87       Cd  0.16372920  0.33313727  0.30261060     1.59600
O88         O  0.07471872  0.32872091  0.32079338    -0.80000
O89         O  0.16527957  0.33377562  0.33357572    -1.90500
Cd90       Cd  0.17035009  0.28472692  0.34401541     1.59900
O91         O  0.11166467  0.33875457  0.29200698    -0.80000
O92         O  0.22490365  0.30293746  0.36138622    -0.78600
C93         C  0.25133204  0.41548705  0.30150553     0.83900
C94         C  0.15809607  0.41556661  0.36587455     0.83500
O95         O  0.25223280  0.37382946  0.36113221    -0.77600
C96         C  0.08316406  0.24328506  0.36640495     0.84400
O97         O  0.24954641  0.41933917  0.32070659    -0.77700
C98         C  0.07954114  0.33586663  0.30170820     0.84500
C99         C  0.16058522  0.24597079  0.30102788     0.84800
O100        O  0.15750011  0.27545626  0.29166765    -0.80100
C101        C  0.37029173  0.48293523  0.29403504     0.04000
C102        C  0.32993051  0.45693682  0.30254799    -0.12200
C103        C  0.29230465  0.44535466  0.29150154     0.01500
C104        C  0.29538866  0.45988382  0.27132625    -0.10700
C105        C  0.33621265  0.48655983  0.26264603     0.04000
C106        C  0.37345614  0.99844205  0.27424522    -0.10100
H107        H  0.32794287  0.44447048  0.31781058     0.09600
H108        H  0.26661110  0.44986176  0.26237512     0.07100
H109        H  0.40495418  0.01813640  0.26753086     0.07000
C110        C  0.34234827  0.04596741  0.21391968     0.04000
C111        C  0.36833013  0.03546706  0.20233141    -0.12200
C112        C  0.38069096  0.50693715  0.20960199     0.01500
C113        C  0.36655447  0.48800625  0.22868088    -0.10700
C114        C  0.34145096  0.49906533  0.24094406     0.04000
C115        C  0.32830350  0.02741766  0.23330648    -0.10100
H116        H  0.38039636  0.05092795  0.18769882     0.09600
H117        H  0.37787952  0.46735736  0.23466876     0.07100
H118        H  0.31031269  0.03734861  0.24287435     0.07000
O119        O  0.45692849  0.41104475  0.19337229    -0.77600
C120        C  0.41364747  0.50305080  0.19833609     0.83400
O121        O  0.44341149  0.43889946  0.12420565    -0.78700
O122        O  0.49849481  0.08645126  0.15304517    -0.80200
O123        O  0.08539871  0.04780000  0.19313655    -0.80000
O124        O  0.02792470  0.44051307  0.19458770    -0.78600
Zn125      Zn  0.44381416  0.44928751  0.17648718     1.55700
O126        O  0.05453300  0.08813648  0.19385689    -0.80000
Cd127      Cd  0.04502245  0.49392286  0.17666870     1.59700
Cd128      Cd  0.49606128  0.49776206  0.13457491     1.59600
O129        O  0.08190566  0.99459827  0.15312924    -0.80000
O130        O  0.49553251  0.49727705  0.16563124    -1.90500
Cd131      Cd  0.50032571  0.05087506  0.17654699     1.59900
O132        O  0.05505224  0.00418725  0.12418916    -0.80000
O133        O  0.44753611  0.03762723  0.19349336    -0.78600
C134        C  0.41258110  0.40919545  0.13453641     0.83900
C135        C  0.49039267  0.41055743  0.19915876     0.83500
O136        O  0.40741373  0.46626834  0.19314640    -0.77600
C137        C  0.08516022  0.08169743  0.19844168     0.84400
O138        O  0.40966789  0.41216607  0.15368947    -0.77700
C139        C  0.08451785  0.00176028  0.13406539     0.84500
C140        C  0.49167779  0.08200820  0.13396105     0.84800
O141        O  0.48972128  0.05030354  0.12407743    -0.80100
C142        C  0.14924258  0.20508968  0.29087112     0.04000
C143        C  0.12320603  0.16754623  0.30198824    -0.12200
C144        C  0.10919740  0.12707398  0.29369220     0.01500
C145        C  0.12192579  0.12366901  0.27404452    -0.10700
C146        C  0.14718358  0.16086092  0.26229761     0.04000
C147        C  0.16094092  0.20185320  0.27076335    -0.10100
H148        H  0.11251785  0.16970933  0.31717503     0.09600
H149        H  0.11031056  0.09205698  0.26747315     0.07100
H150        H  0.17968907  0.23056460  0.26174572     0.07000
C151        C  0.20004306  0.15292009  0.21381414     0.04000
C152        C  0.19581795  0.16773597  0.23305609    -0.12200
C153        C  0.15438260  0.15512912  0.24064559     0.01500
C154        C  0.11803462  0.12967296  0.22849950    -0.10700
C155        C  0.12248093  0.11448718  0.20963904     0.04000
C156        C  0.16330436  0.12638031  0.20240458    -0.10100
H157        H  0.22386793  0.18594432  0.24255747     0.09600
H158        H  0.08611634  0.11884456  0.23446601     0.07100
H159        H  0.16645707  0.11368281  0.18791206     0.07000
C160        C  0.04907584  0.34627429  0.29177939     0.04000
C161        C  0.03729486  0.37189135  0.30302926    -0.12200
C162        C  0.51074255  0.38580613  0.29482841     0.01500
C163        C  0.49451249  0.37314838  0.27518081    -0.10700
C164        C  0.50643482  0.34808714  0.26331536     0.04000
C165        C  0.03393479  0.33458910  0.27166625    -0.10100
H166        H  0.05042287  0.38279209  0.31816698     0.09600
H167        H  0.47461995  0.38486652  0.26866603     0.07100
H168        H  0.04409104  0.31620923  0.26252590     0.07000
C169        C  0.49344419  0.34112198  0.24163197     0.04000
C170        C  0.46527822  0.29963500  0.23378745    -0.12200
C171        C  0.44618774  0.29541000  0.21454361     0.01500
C172        C  0.45587354  0.33225440  0.20333531    -0.10700
C173        C  0.48463335  0.37313961  0.21068968     0.04000
C174        C  0.00401256  0.37757475  0.22962656    -0.10100
H175        H  0.45605514  0.27142224  0.24307270     0.09600
H176        H  0.44037462  0.32908588  0.18874032     0.07100
H177        H  0.02498725  0.40951592  0.23566827     0.07000
O178        O  0.41054949  0.45728877  0.31097105    -0.77600
C179        C  0.50571337  0.41824278  0.30610481     0.83400
O180        O  0.44124070  0.44704429  0.38092922    -0.78700
O181        O  0.08833013  0.00487442  0.35147161    -0.80200
O182        O  0.04326568  0.08804360  0.31065217    -0.80000
O183        O  0.43651432  0.02794356  0.31067787    -0.78600
Zn184      Zn  0.44984805  0.44593929  0.32831469     1.55700
O185        O  0.08641584  0.06025601  0.31017911    -0.80000
Cd186      Cd  0.49111218  0.04716002  0.32809303     1.59700
Cd187      Cd  0.49865634  0.49951872  0.36988897     1.59600
O188        O  0.99247820  0.08411575  0.35199134    -0.80000
O189        O  0.49721070  0.49878889  0.33882563    -1.90500
Cd190      Cd  0.05170164  0.50562139  0.32784152     1.59900
O191        O  0.00383735  0.05732526  0.38054665    -0.80000
O192        O  0.03971255  0.45311233  0.31063895    -0.78600
C193        C  0.41118068  0.41594220  0.37094782     0.83900
C194        C  0.40823027  0.49004762  0.30556284     0.83500
O195        O  0.46864348  0.41045348  0.31177579    -0.77600
C196        C  0.07780970  0.08931441  0.30519465     0.84400
O197        O  0.41327671  0.41233545  0.35173746    -0.77700
C198        C  0.00038691  0.08647786  0.37100770     0.84500
C199        C  0.08381082  0.99784396  0.37058197     0.84800
O200        O  0.05166882  0.99483492  0.38038028    -0.80100
O201        O  0.38921459  0.13622623  0.02578514    -0.77600
C202        C  0.24952996  0.07715962  0.03161470     0.83400
O203        O  0.32483065  0.10773782  0.95641390    -0.78700
O204        O  0.24169709  0.16187383  0.98507877    -0.80200
O205        O  0.35984297  0.25479213  0.02688162    -0.80000
O206        O  0.41908124  0.20749564  0.02628397    -0.78600
Zn207      Zn  0.33541712  0.11778860  0.00895812     1.55700
O208        O  0.28872728  0.21241567  0.02622633    -0.80000
Cd209      Cd  0.37887870  0.21970257  0.00908605     1.59700
Cd210      Cd  0.33165242  0.16640704  0.96711085     1.59600
O211        O  0.41655973  0.25623741  0.98559441    -0.80000
O212        O  0.33084947  0.16531461  0.99816788    -1.90500
Cd213      Cd  0.27686775  0.16009792  0.00886773     1.59900
O214        O  0.39084945  0.21865953  0.95680635    -0.80000
O215        O  0.24066267  0.10588284  0.02641792    -0.78600
C216        C  0.32604168  0.07803215  0.96662727     0.83900
C217        C  0.41907431  0.17330043  0.03122491     0.83500
O218        O  0.28428483  0.07885705  0.02618244    -0.77600
C219        C  0.32231144  0.24660308  0.03184628     0.84400
O220        O  0.33239081  0.08095353  0.98578739    -0.77700
C221        C  0.41986195  0.25104875  0.96663076     0.84500
C222        C  0.24760587  0.17055444  0.96615609     0.84800
O223        O  0.28003490  0.17370037  0.95653915    -0.80100
C224        C  0.27784612  0.31650450  0.04866250     0.04000
C225        C  0.28838756  0.29059709  0.03683814    -0.12200
C226        C  0.31655908  0.27764731  0.04392483     0.01500
C227        C  0.33512497  0.29092207  0.06311982    -0.10700
C228        C  0.32404338  0.31564953  0.07564326     0.04000
C229        C  0.29530606  0.32868784  0.06837082    -0.10100
H230        H  0.27379817  0.27954585  0.02195604     0.09600
H231        H  0.35616475  0.27984195  0.06883897     0.07100
H232        H  0.28619190  0.34726046  0.07799992     0.07000
C233        C  0.38114236  0.36756834  0.12524145     0.04000
C234        C  0.36761766  0.33038506  0.13715002    -0.12200
C235        C  0.34154504  0.28932971  0.12907202     0.01500
C236        C  0.32695877  0.28537267  0.10903178    -0.10700
C237        C  0.33839627  0.32206650  0.09707176     0.04000
C238        C  0.36617343  0.36333978  0.10509655    -0.10100
H239        H  0.37990795  0.33324700  0.15250348     0.09600
H240        H  0.30697283  0.25360244  0.10259586     0.07100
H241        H  0.37653802  0.39159468  0.09567984     0.07000
C242        C  0.17970889  0.46203872  0.04800118     0.04000
C243        C  0.20606312  0.49882742  0.03640247    -0.12200
C244        C  0.21855122  0.03988429  0.04356759     0.01500
C245        C  0.20421560  0.04472474  0.06258966    -0.10700
C246        C  0.17897418  0.00858306  0.07490275     0.04000
C247        C  0.16653722  0.46694494  0.06755212    -0.10100
H248        H  0.21782464  0.49562086  0.02166075     0.09600
H249        H  0.21485860  0.07677494  0.06836935     0.07100
H250        H  0.14774997  0.43902251  0.07704832     0.07000
C251        C  0.12604292  0.01243042  0.12452457     0.04000
C252        C  0.13052563  0.50229327  0.10428003    -0.12200
C253        C  0.17196200  0.01608339  0.09635086     0.01500
C254        C  0.20842634  0.04097772  0.10853804    -0.10700
C255        C  0.20415223  0.05102196  0.12863986     0.04000
C256        C  0.16305925  0.03587775  0.13655228    -0.10100
H257        H  0.10241514  0.48453844  0.09475867     0.09600
H258        H  0.24027966  0.05287726  0.10224611     0.07100
H259        H  0.16004326  0.04492280  0.15196557     0.07000
C260        C  0.03349401  0.21645127  0.04773886     0.04000
C261        C  0.49703470  0.20597684  0.03592807    -0.12200
C262        C  0.45577119  0.17793412  0.04303919     0.01500
C263        C  0.45036057  0.15917168  0.06219986    -0.10700
C264        C  0.48617134  0.16994490  0.07469511     0.04000
C265        C  0.02806628  0.19875852  0.06742198    -0.10100
H266        H  0.50065836  0.22083032  0.02111368     0.09600
H267        H  0.41815993  0.13831957  0.06794358     0.07100
H268        H  0.05574853  0.20784898  0.07705951     0.07000
C269        C  0.48111368  0.11285751  0.12435835     0.04000
C270        C  0.45767478  0.12649224  0.13628895    -0.12200
C271        C  0.44284004  0.15262356  0.12831561     0.01500
C272        C  0.45310807  0.16696631  0.10820898    -0.10700
C273        C  0.47814992  0.15540868  0.09614374     0.04000
C274        C  0.99163892  0.12763463  0.10415799    -0.10100
H275        H  0.44844671  0.11438977  0.15168747     0.09600
H276        H  0.44139197  0.18699532  0.10184795     0.07100
H277        H  0.00948058  0.11728418  0.09473276     0.07000
O278        O  0.27025345  0.19547851  0.19981220    -0.77600
C279        C  0.41283237  0.25430250  0.20591742     0.83400
O280        O  0.33328905  0.21971391  0.13196276    -0.78700
O281        O  0.41894629  0.16513995  0.15990693    -0.80200
O282        O  0.29866065  0.07252003  0.20049704    -0.80000
O283        O  0.24190498  0.12438427  0.20222437    -0.78600
Zn284      Zn  0.32582658  0.21379010  0.18403274     1.55700
O285        O  0.36985143  0.11593973  0.20162322    -0.80000
Cd286      Cd  0.28007011  0.11045295  0.18435431     1.59700
Cd287      Cd  0.32961663  0.16424758  0.14335572     1.59600
O288        O  0.24043171  0.07557255  0.16024759    -0.80000
O289        O  0.32987188  0.16501789  0.17404485    -1.90500
Cd290      Cd  0.38411161  0.16909863  0.18425395     1.59900
O291        O  0.27377003  0.11221307  0.13220837    -0.80000
O292        O  0.42164655  0.22530077  0.20094713    -0.78600
C293        C  0.33380610  0.25128940  0.14105538     0.83900
C294        C  0.24061929  0.15857520  0.20570029     0.83500
O295        O  0.37722566  0.25164921  0.20121038    -0.77600
C296        C  0.33604138  0.08041082  0.20572253     0.84400
O297        O  0.33029558  0.25202948  0.16036289    -0.77700
C298        C  0.24188593  0.08076834  0.14097728     0.84500
C299        C  0.41325161  0.16073347  0.14066485     0.84800
O300        O  0.38138414  0.16038742  0.13199161    -0.80100
O301        O  0.21016317  0.41936938  0.97919220    -0.77600
C302        C  0.07610021  0.32487217  0.97396827     0.83400
O303        O  0.16999976  0.39055787  0.04894058    -0.78700
O304        O  0.07880508  0.24195229  0.01948007    -0.80200
O305        O  0.20698712  0.28668056  0.97909592    -0.80000
O306        O  0.25417647  0.39279231  0.97906536    -0.78600
Zn307      Zn  0.15931812  0.38043008  0.99644759     1.55700
O308        O  0.13591587  0.24418923  0.97816657    -0.80000
Cd309      Cd  0.21838514  0.33866028  0.99657538     1.59700
Cd310      Cd  0.16351496  0.33196044  0.03823843     1.59600
O311        O  0.25382775  0.33720730  0.02030932    -0.80000
O312        O  0.16425943  0.33311287  0.00719333    -1.90500
Cd313      Cd  0.11653627  0.27877917  0.99607200     1.59900
O314        O  0.21538701  0.32492425  0.04883807    -0.80000
O315        O  0.07637394  0.29077312  0.97878010    -0.78600
C316        C  0.16867805  0.42021001  0.03871946     0.83900
C317        C  0.24500341  0.42124208  0.97379920     0.83500
O318        O  0.10557446  0.36193987  0.97962575    -0.77600
C319        C  0.17354186  0.25258150  0.97328771     0.84400
O320        O  0.16232795  0.41725669  0.01956626    -0.77700
C321        C  0.24796008  0.32838847  0.03921651     0.84500
C322        C  0.07542821  0.24701471  0.03845291     0.84800
O323        O  0.10432189  0.27939318  0.04833951    -0.80100
C324        C  0.11448513  0.13082712  0.88021639     0.04000
C325        C  0.12814135  0.16770644  0.86804623    -0.12200
C326        C  0.15460856  0.20892274  0.87583848     0.01500
C327        C  0.16943551  0.21334981  0.89586457    -0.10700
C328        C  0.15784527  0.17694544  0.90807021     0.04000
C329        C  0.12971318  0.13551638  0.90032138    -0.10100
H330        H  0.11563800  0.16453362  0.85271826     0.09600
H331        H  0.18964090  0.24526237  0.90211062     0.07100
H332        H  0.11926801  0.10750283  0.90992292     0.07000
C333        C  0.21796019  0.18261224  0.95663136     0.04000
C334        C  0.20744580  0.20861313  0.96838162    -0.12200
C335        C  0.17954955  0.22178233  0.96116312     0.01500
C336        C  0.16129019  0.20870167  0.94189519    -0.10700
C337        C  0.17230645  0.18378526  0.92947598     0.04000
C338        C  0.20075753  0.17052321  0.93688259    -0.10100
H339        H  0.22180020  0.21952101  0.98331742     0.09600
H340        H  0.14040594  0.21989153  0.93608644     0.07100
H341        H  0.20980115  0.15178102  0.92733477     0.07000
C342        C  0.36878967  0.48476276  0.88129302     0.04000
C343        C  0.33202768  0.46116362  0.86910139    -0.12200
C344        C  0.29075826  0.44627674  0.87672571     0.01500
C345        C  0.28607763  0.45655987  0.89673810    -0.10700
C346        C  0.32232491  0.48162284  0.90904996     0.04000
C347        C  0.36390815  0.99526098  0.90139865    -0.10100
H348        H  0.33539260  0.45199559  0.85376556     0.09600
H349        H  0.25410421  0.44479894  0.90284999     0.07100
H350        H  0.39182623  0.01321831  0.91101031     0.07000
C351        C  0.31478246  0.03616523  0.95732551     0.04000
C352        C  0.28839706  0.49946308  0.96895051    -0.12200
C353        C  0.27574061  0.45837771  0.96178686     0.01500
C354        C  0.28981398  0.45333902  0.94275353    -0.10700
C355        C  0.31504512  0.48935796  0.93040718     0.04000
C356        C  0.32774401  0.03111134  0.93774121    -0.10100
H357        H  0.27675668  0.00274798  0.98371431     0.09600
H358        H  0.27909267  0.42123312  0.93702620     0.07100
H359        H  0.34664096  0.05897623  0.92823052     0.07000
C360        C  0.51451112  0.38501844  0.88082815     0.04000
C361        C  0.03777042  0.37143990  0.86870253    -0.12200
C362        C  0.05248121  0.34502160  0.87647184     0.01500
C363        C  0.04224494  0.33039196  0.89655966    -0.10700
C364        C  0.51731282  0.34187424  0.90876108     0.04000
C365        C  0.50400864  0.36991248  0.90095675    -0.10100
H366        H  0.04691038  0.38377227  0.85333200     0.09600
H367        H  0.05389933  0.31021548  0.90280132     0.07100
H368        H  0.48626971  0.38019780  0.91049661     0.07000
C369        C  0.46182014  0.28146759  0.95729977     0.04000
C370        C  0.46733391  0.29864240  0.93749429    -0.12200
C371        C  0.00927313  0.32720971  0.93018038     0.01500
C372        C  0.04503893  0.33820822  0.94272716    -0.10700
C373        C  0.03951838  0.32008935  0.96204603     0.04000
C374        C  0.49824409  0.29231702  0.96920812    -0.10100
H375        H  0.43968285  0.28941848  0.92781570     0.09600
H376        H  0.07726315  0.35887325  0.93696375     0.07100
H377        H  0.49460466  0.27789707  0.98413512     0.07000
O378        O  0.22595552  0.30332031  0.80484265    -0.77600
C379        C  0.16212878  0.24669885  0.86369401     0.83400
O380        O  0.07407482  0.27231606  0.80382358    -0.78700
O381        O  0.11381613  0.33714082  0.87267411    -0.80200
O382        O  0.25495738  0.42223410  0.84491835    -0.80000
O383        O  0.25363989  0.37437106  0.80250307    -0.78600
Zn384      Zn  0.17018087  0.28428148  0.82066307     1.55700
O385        O  0.22120635  0.38516297  0.87279045    -0.80000
Cd386      Cd  0.21536229  0.38785375  0.82059744     1.59700
Cd387      Cd  0.11142064  0.32876929  0.82039737     1.59600
O388        O  0.19633998  0.42600369  0.80477549    -0.80000
O389        O  0.16569368  0.33289770  0.83066359    -1.90500
Cd390      Cd  0.16560419  0.33337688  0.86134737     1.59900
O391        O  0.12533299  0.38187519  0.80297624    -0.80000
O392        O  0.16200289  0.27802760  0.87268873    -0.78600
C393        C  0.08295061  0.24332877  0.79889329     0.83900
C394        C  0.25533153  0.34039731  0.79897693     0.83500
O395        O  0.16603569  0.24599837  0.84439675    -0.77600
C396        C  0.25323975  0.41672618  0.86418217     0.84400
O397        O  0.11869290  0.24616323  0.80351474    -0.77700
C398        C  0.15898687  0.41782152  0.79927082     0.84500
C399        C  0.08204043  0.33699052  0.86401835     0.84800
O400        O  0.07643413  0.33277501  0.84475857    -0.80100
C401        C  0.44618783  0.15141044  0.71393532     0.04000
C402        C  0.46028250  0.12815361  0.70214881    -0.12200
C403        C  0.48563758  0.11273756  0.71047456     0.01500
C404        C  0.99875978  0.12237920  0.73077343    -0.10700
C405        C  0.98673184  0.14731157  0.74267522     0.04000
C406        C  0.45976929  0.16132654  0.73430176    -0.10100
H407        H  0.44900146  0.11940095  0.68660534     0.09600
H408        H  0.01827238  0.11032392  0.73739946     0.07100
H409        H  0.44904838  0.17905560  0.74358664     0.07000
C410        C  0.04938866  0.20192092  0.79060208     0.04000
C411        C  0.04003200  0.16551171  0.80207597    -0.12200
C412        C  0.01054563  0.12444456  0.79521576     0.01500
C413        C  0.49015894  0.11924546  0.77651889    -0.10700
C414        C  0.00043778  0.15514544  0.76422377     0.04000
C415        C  0.02930429  0.19694913  0.77156309    -0.10100
H416        H  0.05620024  0.16915434  0.81652222     0.09600
H417        H  0.46866659  0.08708753  0.77085105     0.07100
H418        H  0.03822839  0.22477578  0.76203509     0.07000
O419        O  0.02964224  0.43981713  0.63964291    -0.77600
C420        C  0.08789693  0.08203302  0.63319767     0.83400
O421        O  0.05410202  0.00418616  0.70765293    -0.78700
O422        O  0.49894655  0.08882674  0.67904935    -0.80200
O423        O  0.40639309  0.46819678  0.63865777    -0.80000
O424        O  0.45869780  0.41183462  0.63694279    -0.78600
Zn425      Zn  0.04795259  0.99535430  0.65552752     1.55700
O426        O  0.44987401  0.03941145  0.63742260    -0.80000
Cd427      Cd  0.44458434  0.44982618  0.65487341     1.59700
Cd428      Cd  0.99837534  0.99971635  0.69599558     1.59600
O429        O  0.41000116  0.41033394  0.67906641    -0.80000
O430        O  0.99915753  0.99959402  0.66527409    -1.90500
Cd431      Cd  0.50294842  0.05363449  0.65485315     1.59900
O432        O  0.44647497  0.44357298  0.70717480    -0.80000
O433        O  0.05878457  0.09077455  0.63797713    -0.78600
C434        C  0.08552458  0.00423199  0.69866974     0.83900
C435        C  0.99281864  0.41043612  0.63353094     0.83500
O436        O  0.08558786  0.04670354  0.63825337    -0.77600
C437        C  0.41424232  0.50555621  0.63332976     0.84400
O438        O  0.08601823  0.99996724  0.67938604    -0.77700
C439        C  0.41512755  0.41165424  0.69834944     0.84500
C440        C  0.49412270  0.08315540  0.69828118     0.84800
O441        O  0.49370723  0.05132201  0.70706670    -0.80100
C442        C  0.29624066  0.34660878  0.79099533     0.04000
C443        C  0.33255172  0.37301348  0.80266792    -0.12200
C444        C  0.37362292  0.38545903  0.79563688     0.01500
C445        C  0.37887880  0.37108351  0.77671557    -0.10700
C446        C  0.34300168  0.34562679  0.76434680     0.04000
C447        C  0.30122786  0.33242964  0.77171874    -0.10100
H448        H  0.32886427  0.38512804  0.81722579     0.09600
H449        H  0.41102078  0.38232432  0.77094962     0.07100
H450        H  0.27347795  0.31418121  0.76204473     0.07000
C451        C  0.34593618  0.29532312  0.71387312     0.04000
C452        C  0.36944280  0.33274532  0.70214823    -0.12200
C453        C  0.38540028  0.37359849  0.71056294     0.01500
C454        C  0.37595954  0.37707966  0.73090579    -0.10700
C455        C  0.35074231  0.34000129  0.74274875     0.04000
C456        C  0.33624125  0.29895223  0.73426675    -0.14900
H457        H  0.37800269  0.33015235  0.68658199     0.09600
H458        H  0.38836794  0.40869709  0.73760431     0.07100
H459        H  0.31834292  0.27039335  0.74350230     0.07000
C460        C  0.15235632  0.45228846  0.79127530     0.04000
C461        C  0.12632559  0.46244081  0.80303703    -0.12200
C462        C  0.11382621  0.99103617  0.79599602     0.01500
C463        C  0.12761528  0.01021453  0.77693498    -0.10700
C464        C  0.15276771  0.99957930  0.76450368     0.04000
C465        C  0.16608236  0.47116051  0.77190806    -0.10100
H466        H  0.11446750  0.44677963  0.81764849     0.09600
H467        H  0.11608546  0.03082128  0.77111907     0.07100
H468        H  0.18412804  0.46153810  0.76219766     0.07000
C469        C  0.12372186  0.51258049  0.71065660     0.04000
C470        C  0.16455092  0.03731856  0.70204167    -0.12200
C471        C  0.20213356  0.05177983  0.71370319     0.01500
C472        C  0.19877091  0.03890094  0.73416785    -0.10700
C473        C  0.15782897  0.51239152  0.74281698     0.04000
C474        C  0.12060447  0.50015660  0.73107656    -0.10100
H475        H  0.16688621  0.04809388  0.68642125     0.09600
H476        H  0.22742570  0.04995919  0.74335464     0.07100
H477        H  0.08914071  0.48109555  0.73792451     0.07000
O478        O  0.08753733  0.03169164  0.81273919    -0.77600
C479        C  0.00488128  0.08744138  0.80695217     0.83400
O480        O  0.05210289  0.05949004  0.88163188    -0.78700
O481        O  0.41341991  0.50365257  0.85295033    -0.80200
O482        O  0.44088521  0.41104783  0.81179056    -0.80000
O483        O  0.04719914  0.46034785  0.81235219    -0.78600
Zn484      Zn  0.05130372  0.04862587  0.82940998     1.55700
O485        O  0.41004594  0.45137823  0.81277846    -0.80000
Cd486      Cd  0.99462722  0.44747636  0.82931040     1.59700
Cd487      Cd  0.99940826  0.00036013  0.87139283     1.59600
O488        O  0.49604415  0.41123563  0.85249491    -0.80000
O489        O  0.99972486  0.00098869  0.84039917    -1.90500
Cd490      Cd  0.45036041  0.00462882  0.82955572     1.59900
O491        O  0.50636595  0.44785155  0.88146248    -0.80000
O492        O  0.46740276  0.05800075  0.81187235    -0.78600
C493        C  0.08282165  0.08903306  0.87116665     0.83900
C494        C  0.08114185  0.99491285  0.80747843     0.83500
O495        O  0.03832950  0.08666544  0.81245593    -0.77600
C496        C  0.41043888  0.41771674  0.80721034     0.84400
O497        O  0.08550601  0.08576561  0.85203267    -0.77700
C498        C  0.50376565  0.41592893  0.87148951     0.84500
C499        C  0.41057198  0.49589426  0.87193728     0.84800
O500        O  0.43999716  0.49330629  0.88179660    -0.80100
O501        O  0.29017369  0.07966111  0.52774612    -0.77600
C502        C  0.25016222  0.17442788  0.53275336     0.83400
O503        O  0.27922662  0.11043674  0.45782906    -0.78700
O504        O  0.33677381  0.25748267  0.48757153    -0.80200
O505        O  0.42101552  0.21370306  0.52774278    -0.80000
O506        O  0.36092836  0.10660946  0.52836611    -0.78600
Zn507      Zn  0.27829937  0.11882883  0.51051144     1.55700
O508        O  0.39225952  0.25597062  0.52881968    -0.80000
Cd509      Cd  0.37973735  0.16092383  0.51070318     1.59700
Cd510      Cd  0.33175962  0.16785357  0.46896463     1.59600
O511        O  0.41630030  0.16171398  0.48680643    -0.80000
O512        O  0.33104405  0.16644315  0.50004195    -1.90500
Cd513      Cd  0.33761907  0.22080256  0.51117609     1.59900
O514        O  0.38954865  0.17306623  0.45824878    -0.80000
O515        O  0.28497985  0.20851657  0.52828001    -0.78600
C516        C  0.24815768  0.08031067  0.46778774     0.83900
C517        C  0.32309440  0.07781502  0.53332030     0.83500
O518        O  0.24256045  0.13735819  0.52709992    -0.77600
C519        C  0.42190919  0.24798389  0.53341371     0.84400
O520        O  0.24467257  0.08232664  0.48701630    -0.77700
C521        C  0.41864506  0.16953746  0.46778977     0.84500
C522        C  0.32989737  0.25307110  0.46844505     0.84800
O523        O  0.32705900  0.22101103  0.45860236    -0.80100
C524        C  0.17852416  0.21822366  0.54699469     0.04000
C525        C  0.20384477  0.20608762  0.53572694    -0.12200
C526        C  0.21762540  0.17941615  0.54394795     0.01500
C527        C  0.20504154  0.16335743  0.56361417    -0.10700
C528        C  0.18029162  0.17562542  0.57549430     0.04000
C529        C  0.16698769  0.20328846  0.56714273    -0.10100
H530        H  0.21470757  0.21910181  0.52057351     0.09600
H531        H  0.21669435  0.14342215  0.57015406     0.07100
H532        H  0.14889146  0.21373411  0.57630758     0.07000
C533        C  0.20638775  0.15404917  0.62785584     0.04000
C534        C  0.16577288  0.12502380  0.63532314    -0.12200
C535        C  0.12871263  0.11528315  0.62434140     0.01500
C536        C  0.13243813  0.13451374  0.60517386    -0.10700
C537        C  0.17369459  0.16294352  0.59720801     0.04000
C538        C  0.21037037  0.17371336  0.60904756    -0.10100
H539        H  0.16299092  0.10946060  0.64986334     0.09600
H540        H  0.10404398  0.12518602  0.59602652     0.07100
H541        H  0.24214297  0.19491794  0.60291835     0.07000
C542        C  0.03773981  0.31946539  0.54759563     0.04000
C543        C  0.00015644  0.29357909  0.53647260    -0.12200
C544        C  0.45976080  0.27966570  0.54479896     0.01500
C545        C  0.45652415  0.29250242  0.56445408    -0.10700
C546        C  0.49376710  0.31762916  0.57619335     0.04000
C547        C  0.03463923  0.33119332  0.56771050    -0.10100
H548        H  0.00221972  0.28280520  0.52128642     0.09600
H549        H  0.42499130  0.28092573  0.57106589     0.07100
H550        H  0.06336817  0.34973003  0.57674090     0.07000
C551        C  0.48704206  0.36994759  0.62518281     0.04000
C552        C  0.00142990  0.36594513  0.60578692    -0.12200
C553        C  0.48822629  0.32453236  0.59790619     0.01500
C554        C  0.46256921  0.28798823  0.60988335    -0.10700
C555        C  0.44779764  0.29226520  0.62886507     0.04000
C556        C  0.46032764  0.33302696  0.63642918    -0.10100
H557        H  0.01974913  0.39417835  0.59640899     0.09600
H558        H  0.45130500  0.25610105  0.60371847     0.07100
H559        H  0.44788196  0.33600169  0.65102675     0.07000
C560        C  0.31624389  0.03982142  0.54480045     0.04000
C561        C  0.28955067  0.99940071  0.53644425    -0.12200
C562        C  0.27806844  0.46170665  0.54744087     0.01500
C563        C  0.29328230  0.46478599  0.56748557    -0.10700
C564        C  0.32077627  0.00567406  0.57602221     0.04000
C565        C  0.33268542  0.04300213  0.56438720    -0.10100
H566        H  0.27650543  0.99740189  0.52131402     0.09600
H567        H  0.28324765  0.43599950  0.57644375     0.07100
H568        H  0.35286025  0.07453134  0.57101596     0.07000
C569        C  0.37987474  0.51187364  0.62495604     0.04000
C570        C  0.36941958  0.03800639  0.63641382    -0.12200
C571        C  0.34086408  0.05024721  0.62903760     0.01500
C572        C  0.32213628  0.03603918  0.60993700    -0.10700
C573        C  0.33324160  0.51096116  0.59774846     0.04000
C574        C  0.36157372  0.49785841  0.60549296    -0.10100
H575        H  0.38473834  0.05017321  0.65106784     0.09600
H576        H  0.30147965  0.04728259  0.60388218     0.07100
H577        H  0.37157950  0.47983736  0.59598677     0.07000
O578        O  0.24454981  0.12647956  0.64499331    -0.77600
C579        C  0.33676373  0.08323897  0.64017990     0.83400
O580        O  0.27318884  0.11386983  0.71408704    -0.78700
O581        O  0.42025701  0.16891385  0.68512472    -0.80200
O582        O  0.38106163  0.25524293  0.64518814    -0.80000
O583        O  0.27390329  0.19755641  0.64367069    -0.78600
Zn584      Zn  0.28273441  0.11332959  0.66187122     1.55700
O585        O  0.42120999  0.22417576  0.64441069    -0.80000
Cd586      Cd  0.32722392  0.21480172  0.66155643     1.59700
Cd587      Cd  0.33148382  0.16603892  0.70346867     1.59600
O588        O  0.32783626  0.25172138  0.68504902    -0.80000
O589        O  0.33064132  0.16528511  0.67253389    -1.90500
Cd590      Cd  0.38423994  0.17017875  0.66174047     1.59900
O591        O  0.33789114  0.22468898  0.71382142    -0.80000
O592        O  0.37124471  0.11729956  0.64496885    -0.78600
C593        C  0.24331180  0.08275993  0.70399404     0.83900
C594        C  0.24398101  0.15993118  0.63919287     0.83500
O595        O  0.29993683  0.07692025  0.64529230    -0.77600
C596        C  0.41487552  0.25490282  0.63990110     0.84400
O597        O  0.24578648  0.07928372  0.68483529    -0.77700
C598        C  0.33523995  0.25413709  0.70408151     0.84500
C599        C  0.41557440  0.16194279  0.70418007     0.84800
O600        O  0.38375301  0.15977434  0.71396949    -0.80100
O601        O  0.25487812  0.86460339  0.47842263    -0.77600
C602        C  0.17297549  0.92302780  0.47233182     0.83400
O603        O  0.21706696  0.89044487  0.54735851    -0.78700
O604        O  0.08058432  0.83836386  0.51850529    -0.80200
O605        O  0.10567802  0.74456280  0.47687192    -0.80000
O606        O  0.21338328  0.79329378  0.47746731    -0.78600
Zn607      Zn  0.21849758  0.88254145  0.49481092     1.55700
O608        O  0.07593165  0.78596558  0.47792151    -0.80000
Cd609      Cd  0.16035050  0.78049227  0.49429951     1.59700
Cd610      Cd  0.16546982  0.83313949  0.53618281     1.59600
O611        O  0.16142028  0.74419175  0.51794185    -0.80000
O612        O  0.16616006  0.83456400  0.50520787    -1.90500
Cd613      Cd  0.11708151  0.83931038  0.49460040     1.59900
O614        O  0.17086562  0.78085772  0.54679048    -0.80000
O615        O  0.13525789  0.89357997  0.47704542    -0.78600
C616        C  0.24796018  0.92074636  0.53745300     0.83900
C617        C  0.24797798  0.82763184  0.47301858     0.83500
O618        O  0.20617234  0.92165428  0.47785089    -0.77600
C619        C  0.07545038  0.75178914  0.47243398     0.84400
O620        O  0.25169557  0.91896714  0.51824745    -0.77700
C621        C  0.16827229  0.74885326  0.53705225     0.84500
C622        C  0.07851570  0.83045001  0.53749805     0.84800
O623        O  0.10782392  0.82720517  0.54693196    -0.80100
C624        C  0.29187618  0.84704770  0.37775285     0.04000
C625        C  0.33245265  0.87436197  0.36968798    -0.12200
C626        C  0.36994360  0.88540083  0.38077987     0.01500
C627        C  0.36635336  0.86915956  0.40067702    -0.10700
C628        C  0.32525525  0.84108237  0.40888599     0.04000
C629        C  0.28830484  0.82950623  0.39708381    -0.10100
H630        H  0.33471514  0.88816813  0.35472308     0.09600
H631        H  0.39487675  0.87897442  0.40979371     0.07100
H632        H  0.25665736  0.80896646  0.40349157     0.07000
C633        C  0.31983449  0.78407622  0.45866096     0.04000
C634        C  0.33191672  0.79995134  0.43865852    -0.12200
C635        C  0.31906965  0.82826361  0.43058138     0.01500
C636        C  0.29431876  0.84026697  0.44256908    -0.10700
C637        C  0.28095066  0.82312009  0.46199073     0.04000
C638        C  0.29425274  0.79583406  0.46997553    -0.10100
H639        H  0.35000430  0.78968483  0.42937520     0.09600
H640        H  0.28294050  0.86057419  0.43619934     0.07100
H641        H  0.28285319  0.78209031  0.48496857     0.07000
C642        C  0.01132480  0.62757438  0.38093588     0.04000
C643        C  0.49837836  0.63135066  0.40072959    -0.12200
C644        C  0.01126724  0.67262362  0.40870568     0.01500
C645        C  0.03672140  0.70941000  0.39681043    -0.10700
C646        C  0.05107067  0.70556378  0.37766019     0.04000
C647        C  0.03796706  0.66490954  0.36978864    -0.10100
H648        H  0.47948345  0.60292019  0.40989880     0.09600
H649        H  0.04775097  0.74118934  0.40306090     0.07100
H650        H  0.04971625  0.66243505  0.35491354     0.07000
C651        C  0.45968519  0.68016979  0.45792437     0.04000
C652        C  0.46337323  0.66692220  0.43818588    -0.12200
C653        C  0.00455324  0.67942751  0.43026618     0.01500
C654        C  0.04135885  0.70479929  0.44216834    -0.10700
C655        C  0.03764901  0.71949291  0.46126264     0.04000
C656        C  0.49705359  0.70674170  0.46907551    -0.10100
H657        H  0.43494823  0.64810431  0.42900654     0.09600
H658        H  0.07307058  0.71559058  0.43593613     0.07100
H659        H  0.49465594  0.71873290  0.48390384     0.07000
C660        C  0.17925257  0.96093831  0.46098867     0.04000
C661        C  0.16149491  0.95726060  0.44171453    -0.12200
C662        C  0.17296206  0.99415384  0.42987896     0.01500
C663        C  0.20115215  0.53536350  0.43804885    -0.10700
C664        C  0.21755057  0.53905684  0.45793869     0.04000
C665        C  0.20660380  0.00157303  0.46901717    -0.10100
H666        H  0.14086007  0.92554083  0.43536510     0.09600
H667        H  0.21087053  0.56386602  0.42891833     0.07100
H668        H  0.22051270  0.00387511  0.48395884     0.07000
C669        C  0.11480451  0.48771029  0.38035467     0.04000
C670        C  0.13128793  0.50035381  0.40023579    -0.12200
C671        C  0.15977755  0.48765775  0.40822265     0.01500
C672        C  0.17130041  0.96249781  0.39624093    -0.10700
C673        C  0.15352153  0.94854751  0.37695254     0.04000
C674        C  0.12600876  0.96165858  0.36908526    -0.10100
H675        H  0.12137225  0.51877334  0.40949608     0.09600
H676        H  0.19179424  0.95128337  0.40253495     0.07100
H677        H  0.11185001  0.94992700  0.35418705     0.07000
O678        O  0.19501223  0.92244617  0.36053536    -0.77600
C679        C  0.25394708  0.84068000  0.36639752     0.83400
O680        O  0.22099208  0.88461003  0.29157901    -0.78700
O681        O  0.16865170  0.74798366  0.32000527    -0.80200
O682        O  0.07567190  0.77329603  0.36187445    -0.80000
O683        O  0.12376576  0.88098116  0.36130372    -0.78600
Zn684      Zn  0.21306018  0.88611216  0.34412107     1.55700
O685        O  0.11735896  0.74383964  0.36093126    -0.80000
Cd686      Cd  0.11117532  0.82791699  0.34442997     1.59700
Cd687      Cd  0.16369210  0.83313093  0.30261211     1.59600
O688        O  0.07466953  0.82869125  0.32079950    -0.80000
O689        O  0.16525056  0.83377510  0.33357654    -1.90500
Cd690      Cd  0.17034232  0.78473740  0.34401300     1.59900
O691        O  0.11162438  0.83874687  0.29201378    -0.80000
O692        O  0.22488940  0.80295652  0.36138806    -0.78600
C693        C  0.25129451  0.91547771  0.30150021     0.83900
C694        C  0.15804511  0.91555661  0.36587185     0.83500
O695        O  0.25219630  0.87384519  0.36114203    -0.77600
C696        C  0.08316822  0.74327826  0.36641360     0.84400
O697        O  0.24951502  0.91933480  0.32070160    -0.77700
C698        C  0.07949630  0.83584841  0.30171510     0.84500
C699        C  0.16057782  0.74597904  0.30102703     0.84800
O700        O  0.15746840  0.77545235  0.29166866    -0.80100
C701        C  0.37025205  0.98291199  0.29402013     0.04000
C702        C  0.32989295  0.95692558  0.30253723    -0.12200
C703        C  0.29226496  0.94533798  0.29149192     0.01500
C704        C  0.29534523  0.95985048  0.27131330    -0.10700
C705        C  0.33616798  0.98651508  0.26262891     0.04000
C706        C  0.37349897  0.49848188  0.27426325    -0.10100
H707        H  0.32790874  0.94447222  0.31780233     0.09600
H708        H  0.26656538  0.94982527  0.26236314     0.07100
H709        H  0.40499792  0.51818296  0.26755116     0.07000
C710        C  0.34237667  0.54599899  0.21393304     0.04000
C711        C  0.36835599  0.53549585  0.20234458    -0.12200
C712        C  0.38065938  0.00690257  0.20958686     0.01500
C713        C  0.36651170  0.98796107  0.22866331    -0.10700
C714        C  0.34140443  0.99901665  0.24092619     0.04000
C715        C  0.32834316  0.52746004  0.23332273    -0.10100
H716        H  0.38041363  0.55094819  0.18770965     0.09600
H717        H  0.37783411  0.96730974  0.23465068     0.07100
H718        H  0.31035237  0.53739193  0.24289059     0.07000
O719        O  0.45692861  0.91104988  0.19336413    -0.77600
C720        C  0.41362544  0.00302550  0.19832389     0.83400
O721        O  0.44342816  0.93890557  0.12419111    -0.78700
O722        O  0.49849989  0.58645809  0.15304306    -0.80200
O723        O  0.08538854  0.54779121  0.19314831    -0.80000
O724        O  0.02792493  0.94052315  0.19458927    -0.78600
Zn725      Zn  0.44381438  0.94928246  0.17647366     1.55700
O726        O  0.05454202  0.58814602  0.19385376    -0.80000
Cd727      Cd  0.04502772  0.99392402  0.17666225     1.59700
Cd728      Cd  0.49607229  0.99776598  0.13456827     1.59600
O729        O  0.08190641  0.49461568  0.15313516    -0.80000
O730        O  0.49553661  0.99727616  0.16562467    -1.90500
Cd731      Cd  0.50033173  0.55088474  0.17654631     1.59900
O732        O  0.05504053  0.50418176  0.12419385    -0.80000
O733        O  0.44755103  0.53764900  0.19349496    -0.78600
C734        C  0.41260072  0.90919478  0.13452032     0.83900
C735        C  0.49039098  0.91056697  0.19915739     0.83500
O736        O  0.40739337  0.96624794  0.19312611    -0.77600
C737        C  0.08515927  0.58169693  0.19844628     0.84400
O738        O  0.40968628  0.91216019  0.15367350    -0.77700
C739        C  0.08451357  0.50176883  0.13407066     0.84500
C740        C  0.49167410  0.58200831  0.13395972     0.84800
O741        O  0.48970860  0.55029698  0.12407854    -0.80100
C742        C  0.14924405  0.70509929  0.29087121     0.04000
C743        C  0.12321954  0.66755602  0.30199066    -0.12200
C744        C  0.10921827  0.62708390  0.29369606     0.01500
C745        C  0.12194349  0.62367940  0.27404757    -0.10700
C746        C  0.14719094  0.66087089  0.26229865     0.04000
C747        C  0.16093945  0.70186290  0.27076279    -0.10100
H748        H  0.11253441  0.66971888  0.31717804     0.09600
H749        H  0.11033347  0.59206692  0.26747714     0.07100
H750        H  0.17967885  0.73057387  0.26174356     0.07000
C751        C  0.20004409  0.65292003  0.21381500     0.04000
C752        C  0.19582177  0.66774152  0.23305612    -0.12200
C753        C  0.15438733  0.65513699  0.24064646     0.01500
C754        C  0.11803786  0.62967839  0.22850180    -0.10700
C755        C  0.12248148  0.61448641  0.20964257     0.04000
C756        C  0.16330370  0.62637520  0.20240765    -0.10100
H757        H  0.22387229  0.68595250  0.24255594     0.09600
H758        H  0.08612005  0.61885238  0.23446888     0.07100
H759        H  0.16645415  0.61367291  0.18791640     0.07000
C760        C  0.04903105  0.84625686  0.29178667     0.04000
C761        C  0.03724291  0.87186785  0.30303735    -0.12200
C762        C  0.51069915  0.88579081  0.29483339     0.01500
C763        C  0.49448332  0.87314562  0.27518294    -0.10700
C764        C  0.50641080  0.84808873  0.26331782     0.04000
C765        C  0.03390361  0.83458451  0.27167096    -0.10100
H766        H  0.05036165  0.88276031  0.31817707     0.09600
H767        H  0.47459754  0.88486942  0.26866630     0.07100
H768        H  0.04406533  0.81620877  0.26253009     0.07000
C769        C  0.49342736  0.84112870  0.24163374     0.04000
C770        C  0.46525946  0.79964312  0.23378868    -0.12200
C771        C  0.44617216  0.79542118  0.21454448     0.01500
C772        C  0.45586303  0.83226605  0.20333619    -0.10700
C773        C  0.48462567  0.87315002  0.21069067     0.04000
C774        C  0.00400111  0.87758304  0.22962846    -0.10100
H775        H  0.45603311  0.77142981  0.24307345     0.09600
H776        H  0.44036710  0.82909873  0.18873992     0.07100
H777        H  0.02497779  0.90952449  0.23567089     0.07000
O778        O  0.41050438  0.95727328  0.31096652    -0.77600
C779        C  0.50566958  0.91822894  0.30610784     0.83400
O780        O  0.44120314  0.94706090  0.38092626    -0.78700
O781        O  0.08838574  0.50489177  0.35147254    -0.80200
O782        O  0.04329887  0.58805112  0.31066569    -0.80000
O783        O  0.43654816  0.52795713  0.31070043    -0.78600
Zn784      Zn  0.44980332  0.94593038  0.32831282     1.55700
O785        O  0.08645015  0.56026510  0.31018009    -0.80000
Cd786      Cd  0.49115288  0.54716553  0.32810987     1.59700
Cd787      Cd  0.49861208  0.99952822  0.36988082     1.59600
O788        O  0.99253061  0.58411476  0.35201281    -0.80000
O789        O  0.49716481  0.99878580  0.33881803    -1.90500
Cd790      Cd  0.05165527  0.00561226  0.32783873     1.59900
O791        O  0.00388539  0.55731343  0.38056508    -0.80000
O792        O  0.03966794  0.95310141  0.31063878    -0.78600
C793        C  0.41114597  0.91595025  0.37094839     0.83900
C794        C  0.40819110  0.99003025  0.30554858     0.83500
O795        O  0.46859974  0.91043987  0.31177874    -0.77600
C796        C  0.07783975  0.58932328  0.30520102     0.84400
O797        O  0.41323844  0.91233351  0.35173854    -0.77700
C798        C  0.00043841  0.58647110  0.37102902     0.84500
C799        C  0.08386521  0.49785291  0.37058237     0.84800
O800        O  0.05171759  0.49482841  0.38038161    -0.80100
O801        O  0.38919738  0.63623233  0.02578689    -0.77600
C802        C  0.24952393  0.57716757  0.03161465     0.83400
O803        O  0.32482399  0.60772546  0.95640994    -0.78700
O804        O  0.24167788  0.66185075  0.98507122    -0.80200
O805        O  0.35983221  0.75478896  0.02686773    -0.80000
O806        O  0.41907195  0.70750257  0.02627337    -0.78600
Zn807      Zn  0.33540731  0.61778813  0.00895425     1.55700
O808        O  0.28871665  0.71241362  0.02621267    -0.80000
Cd809      Cd  0.37886608  0.71970020  0.00907285     1.59700
Cd810      Cd  0.33163712  0.66639217  0.96710230     1.59600
O811        O  0.41654034  0.75623189  0.98557984    -0.80000
O812        O  0.33083748  0.66530794  0.99815909    -1.90500
Cd813      Cd  0.27685684  0.66009141  0.00885942     1.59900
O814        O  0.39083261  0.71864164  0.95679479    -0.80000
O815        O  0.24065732  0.60589077  0.02641785    -0.78600
C816        C  0.32604612  0.57802799  0.96662515     0.83900
C817        C  0.41905959  0.67330845  0.03122229     0.83500
O818        O  0.28427428  0.57885964  0.02617859    -0.77600
C819        C  0.32230129  0.74660043  0.03183231     0.84400
O820        O  0.33239655  0.58095504  0.98578534    -0.77700
C821        C  0.41984372  0.75103522  0.96661731     0.84500
C822        C  0.24758539  0.67052941  0.96614842     0.84800
O823        O  0.28001505  0.67367749  0.95653118    -0.80100
C824        C  0.27783610  0.81649732  0.04865147     0.04000
C825        C  0.28837595  0.79059020  0.03682652    -0.12200
C826        C  0.31655067  0.77764383  0.04391130     0.01500
C827        C  0.33512184  0.79092049  0.06310510    -0.10700
C828        C  0.32404203  0.81564708  0.07562992     0.04000
C829        C  0.29530093  0.82868310  0.06835929    -0.10100
H830        H  0.27378297  0.77953661  0.02194509     0.09600
H831        H  0.35616402  0.77984226  0.06882231     0.07100
H832        H  0.28618822  0.84725574  0.07798908     0.07000
C833        C  0.38116505  0.86756746  0.12522412     0.04000
C834        C  0.36764209  0.83038464  0.13713272    -0.12200
C835        C  0.34155997  0.78932926  0.12905737     0.01500
C836        C  0.32696688  0.78537123  0.10901809    -0.10700
C837        C  0.33840280  0.82206510  0.09705764     0.04000
C838        C  0.36618737  0.86333854  0.10508076    -0.10100
H839        H  0.37993717  0.83324672  0.15248546     0.09600
H840        H  0.30697505  0.75360090  0.10258377     0.07100
H841        H  0.37654939  0.89159367  0.09566408     0.07000
C842        C  0.17970315  0.96202435  0.04799410     0.04000
C843        C  0.20606097  0.99881514  0.03639680    -0.12200
C844        C  0.21854840  0.53989654  0.04357049     0.01500
C845        C  0.20421079  0.54473979  0.06259175    -0.10700
C846        C  0.17897166  0.50859954  0.07490634     0.04000
C847        C  0.16653395  0.96692872  0.06754608    -0.10100
H848        H  0.21782074  0.99561003  0.02165453     0.09600
H849        H  0.21485079  0.57679072  0.06836974     0.07100
H850        H  0.14774417  0.93900524  0.07704101     0.07000
C851        C  0.12603943  0.51244177  0.12452919     0.04000
C852        C  0.13052859  0.00227653  0.10427636    -0.12200
C853        C  0.17195894  0.51610093  0.09635421     0.01500
C854        C  0.20842299  0.54099065  0.10854205    -0.10700
C855        C  0.20414895  0.55102844  0.12864509     0.04000
C856        C  0.16305614  0.53588426  0.13655762    -0.10100
H857        H  0.10241870  0.98451997  0.09475560     0.09600
H858        H  0.24027601  0.55289025  0.10224994     0.07100
H859        H  0.16004102  0.54492571  0.15197201     0.07000
C860        C  0.03347804  0.71644356  0.04773383     0.04000
C861        C  0.49701832  0.70597823  0.03592551    -0.12200
C862        C  0.45575483  0.67794417  0.04303876     0.01500
C863        C  0.45034392  0.65918214  0.06219991    -0.10700
C864        C  0.48615596  0.66994579  0.07469304     0.04000
C865        C  0.02805121  0.69875127  0.06741722    -0.10100
H866        H  0.50064249  0.72083031  0.02111051     0.09600
H867        H  0.41814362  0.63833524  0.06794473     0.07100
H868        H  0.05573502  0.70783530  0.07705280     0.07000
C869        C  0.48110902  0.61285750  0.12435657     0.04000
C870        C  0.45767643  0.62649666  0.13628920    -0.12200
C871        C  0.44284016  0.65262736  0.12831722     0.01500
C872        C  0.45310139  0.66696711  0.10820980    -0.10700
C873        C  0.47813808  0.65540716  0.09614203     0.04000
C874        C  0.99162772  0.62763204  0.10415517    -0.10100
H875        H  0.44845287  0.61439684  0.15168869     0.09600
H876        H  0.44138387  0.68699624  0.10185015     0.07100
H877        H  0.00946614  0.61727928  0.09472822     0.07000
O878        O  0.27024422  0.69547924  0.19980280    -0.77600
C879        C  0.41282145  0.75431504  0.20591618     0.83400
O880        O  0.33329657  0.71971112  0.13195514    -0.78700
O881        O  0.41895341  0.66515286  0.15990923    -0.80200
O882        O  0.29867846  0.57253293  0.20050274    -0.80000
O883        O  0.24191552  0.62438937  0.20223127    -0.78600
Zn884      Zn  0.32582140  0.71379696  0.18402542     1.55700
O885        O  0.36986672  0.61596555  0.20163150    -0.80000
Cd886      Cd  0.28007773  0.61045748  0.18435838     1.59700
Cd887      Cd  0.32961687  0.66424784  0.14335670     1.59600
O888        O  0.24043242  0.57557389  0.16025307    -0.80000
O889        O  0.32987344  0.66502426  0.17404531    -1.90500
Cd890      Cd  0.38411602  0.66911310  0.18425565     1.59900
O891        O  0.27376722  0.61221540  0.13221329    -0.80000
O892        O  0.42164114  0.72531681  0.20094722    -0.78600
C893        C  0.33381361  0.75128978  0.14104406     0.83900
C894        C  0.24062053  0.65857806  0.20569962     0.83500
O895        O  0.37721475  0.75165921  0.20120626    -0.77600
C896        C  0.33606088  0.58043394  0.20573167     0.84400
O897        O  0.33029749  0.75203378  0.16035123    -0.77700
C898        C  0.24188384  0.58077132  0.14098275     0.84500
C899        C  0.41325278  0.66073650  0.14066757     0.84800
O900        O  0.38137999  0.66038049  0.13199505    -0.80100
O901        O  0.21014319  0.91935992  0.97918556    -0.77600
C902        C  0.07608026  0.82484751  0.97396101     0.83400
O903        O  0.16999010  0.89054165  0.04892994    -0.78700
O904        O  0.07878532  0.74193130  0.01947255    -0.80200
O905        O  0.20697100  0.78666423  0.97908243    -0.80000
O906        O  0.25415938  0.89278625  0.97905683    -0.78600
Zn907      Zn  0.15929810  0.88041195  0.99643968     1.55700
O908        O  0.13589978  0.74416494  0.97815838    -0.80000
Cd909      Cd  0.21836935  0.83864555  0.99656332     1.59700
Cd910      Cd  0.16349991  0.83194230  0.03822700     1.59600
O911        O  0.25381402  0.83719702  0.02029828    -0.80000
O912        O  0.16424179  0.83309290  0.00718223    -1.90500
Cd913      Cd  0.11651787  0.77875487  0.99606269     1.59900
O914        O  0.21537174  0.82490782  0.04882690    -0.80000
O915        O  0.07635616  0.79074851  0.97877062    -0.78600
C916        C  0.16866634  0.92019482  0.03871072     0.83900
C917        C  0.24498619  0.92123772  0.97379332     0.83500
O918        O  0.10555241  0.86191537  0.97961965    -0.77600
C919        C  0.17352580  0.75256114  0.97327687     0.84400
O920        O  0.16230910  0.91724135  0.01955810    -0.77700
C921        C  0.24794720  0.82837775  0.03920560     0.84500
C922        C  0.07541197  0.74699905  0.03844535     0.84800
O923        O  0.10430851  0.77937863  0.04832999    -0.80100
C924        C  0.11448479  0.63081576  0.88020314     0.04000
C925        C  0.12815059  0.66769658  0.86803295    -0.12200
C926        C  0.15462034  0.70891119  0.87582662     0.01500
C927        C  0.16944172  0.71333432  0.89585351    -0.10700
C928        C  0.15784190  0.67692820  0.90805898     0.04000
C929        C  0.12970722  0.63550123  0.90030901    -0.10100
H930        H  0.11565062  0.66452702  0.85270453     0.09600
H931        H  0.18964845  0.74524567  0.90210072     0.07100
H932        H  0.11925413  0.60748687  0.90991058     0.07000
C933        C  0.21793867  0.68258491  0.95662383     0.04000
C934        C  0.20742348  0.70858607  0.96837350    -0.12200
C935        C  0.17953310  0.72176059  0.96115288     0.01500
C936        C  0.16127857  0.70868295  0.94188368    -0.10700
C937        C  0.17229495  0.68376448  0.92946577     0.04000
C938        C  0.20074115  0.67049870  0.93687433    -0.10100
H939        H  0.22177476  0.71949212  0.98331022     0.09600
H940        H  0.14039954  0.71987603  0.93607339     0.07100
H941        H  0.20978651  0.65175685  0.92732706     0.07000
C942        C  0.36880339  0.98476462  0.88129885     0.04000
C943        C  0.33204265  0.96116263  0.86910677    -0.12200
C944        C  0.29077223  0.94627720  0.87672985     0.01500
C945        C  0.28608936  0.95656627  0.89674038    -0.10700
C946        C  0.32233481  0.98163155  0.90905270     0.04000
C947        C  0.36389679  0.49525422  0.90139394    -0.10100
H948        H  0.33540935  0.95199196  0.85377215     0.09600
H949        H  0.25411445  0.94480678  0.90285084     0.07100
H950        H  0.39181685  0.51321016  0.91100530     0.07000
C951        C  0.31479413  0.53616168  0.95732561     0.04000
C952        C  0.28837575  0.99946384  0.96894741    -0.12200
C953        C  0.27572555  0.95837910  0.96178384     0.01500
C954        C  0.28981274  0.95334517  0.94275340    -0.10700
C955        C  0.31504917  0.98936585  0.93040907     0.04000
C956        C  0.32774429  0.53110463  0.93773920    -0.10100
H957        H  0.27678596  0.50274931  0.98371899     0.09600
H958        H  0.27909679  0.92123981  0.93702587     0.07100
H959        H  0.34663463  0.55896798  0.92822659     0.07000
C960        C  0.51453657  0.88502441  0.88082365     0.04000
C961        C  0.03779835  0.87144641  0.86869976    -0.12200
C962        C  0.05249896  0.84501973  0.87646911     0.01500
C963        C  0.04225055  0.83038251  0.89655515    -0.10700
C964        C  0.51731480  0.84186425  0.90875416     0.04000
C965        C  0.50402043  0.86990966  0.90095003    -0.10100
H966        H  0.04694798  0.88378508  0.85333033     0.09600
H967        H  0.05389808  0.81020045  0.90279731     0.07100
H968        H  0.48627906  0.88019429  0.91048859     0.07000
C969        C  0.46180404  0.78144829  0.95728723     0.04000
C970        C  0.46732367  0.79862836  0.93748275    -0.12200
C971        C  0.00926559  0.82719578  0.93017214     0.01500
C972        C  0.04502686  0.83819180  0.94272114    -0.10700
C973        C  0.03950056  0.82006573  0.96203814     0.04000
C974        C  0.49822453  0.79229058  0.96919699    -0.10100
H975        H  0.43967537  0.78940908  0.92780260     0.09600
H976        H  0.07725318  0.85885953  0.93696030     0.07100
H977        H  0.49458066  0.77786531  0.98412329     0.07000
O978        O  0.22597222  0.80332730  0.80483724    -0.77600
C979        C  0.16214312  0.74669047  0.86368441     0.83400
O980        O  0.07409041  0.77233176  0.80381516    -0.78700
O981        O  0.11383079  0.83713140  0.87267361    -0.80200
O982        O  0.25497255  0.92223732  0.84492328    -0.80000
O983        O  0.25367197  0.87438252  0.80251357    -0.78600
Zn984      Zn  0.17019192  0.78428215  0.82065570     1.55700
O985        O  0.22122361  0.88515692  0.87279336    -0.80000
Cd986      Cd  0.21538460  0.88785808  0.82060220     1.59700
Cd987      Cd  0.11144255  0.82877901  0.82039519     1.59600
O988        O  0.19637555  0.92601594  0.80478026    -0.80000
O989        O  0.16571134  0.83289869  0.83066257    -1.90500
Cd990      Cd  0.16562242  0.83337154  0.86134666     1.59900
O991        O  0.12536586  0.88190172  0.80298420    -0.80000
O992        O  0.16202212  0.77801905  0.87268197    -0.78600
C993        C  0.08295761  0.74333827  0.79888446     0.83900
C994        C  0.25535823  0.84040831  0.79898116     0.83500
O995        O  0.16604593  0.74599279  0.84438674    -0.77600
C996        C  0.25325507  0.91672499  0.86418641     0.84400
O997        O  0.11869747  0.74616625  0.80350620    -0.77700
C998        C  0.15902443  0.91784486  0.79927921     0.84500
C999        C  0.08205823  0.83698653  0.86401705     0.84800
O1000       O  0.07645561  0.83277697  0.84475704    -0.80100
C1001       C  0.44607732  0.65139831  0.71394807     0.04000
C1002       C  0.46016516  0.62813895  0.70215893    -0.12200
C1003       C  0.48553541  0.61273519  0.71047796     0.01500
C1004       C  0.99868008  0.62238995  0.73077336    -0.10700
C1005       C  0.98665915  0.64732293  0.74267924     0.04000
C1006       C  0.45968039  0.66132695  0.73431224    -0.10100
H1007       H  0.44886891  0.61937580  0.68661755     0.09600
H1008       H  0.01820408  0.61034234  0.73739397     0.07100
H1009       H  0.44896596  0.67905749  0.74359951     0.07000
C1010       C  0.04938694  0.70193049  0.79059340     0.04000
C1011       C  0.04003644  0.66551746  0.80206345    -0.12200
C1012       C  0.01052883  0.62445197  0.79520857     0.01500
C1013       C  0.49011522  0.61925890  0.77651955    -0.10700
C1014       C  0.00038750  0.65516026  0.76422592     0.04000
C1015       C  0.02927545  0.69696236  0.77156150    -0.10100
H1016       H  0.05622177  0.66915610  0.81650432     0.09600
H1017       H  0.46860589  0.58710168  0.77085471     0.07100
H1018       H  0.03819335  0.72479090  0.76203494     0.07000
O1019       O  0.02972038  0.93978494  0.63965293    -0.77600
C1020       C  0.08778119  0.58204525  0.63319500     0.83400
O1021       O  0.05398430  0.50417628  0.70765231    -0.78700
O1022       O  0.49883675  0.58882470  0.67905033    -0.80200
O1023       O  0.40651326  0.96822541  0.63865371    -0.80000
O1024       O  0.45877844  0.91183314  0.63696078    -0.78600
Zn1025     Zn  0.04784796  0.49536738  0.65552513     1.55700
O1026       O  0.44973546  0.53938790  0.63743387    -0.80000
Cd1027     Cd  0.44468686  0.94984760  0.65488085     1.59700
Cd1028     Cd  0.99825812  0.49970847  0.69599233     1.59600
O1029       O  0.41008738  0.91037122  0.67907459    -0.80000
O1030       O  0.99904309  0.49958776  0.66527049    -1.90500
Cd1031     Cd  0.50282794  0.55362833  0.65485196     1.59900
O1032       O  0.44658733  0.94358439  0.70718127    -0.80000
O1033       O  0.05865801  0.59077634  0.63796808    -0.78600
C1034       C  0.08541015  0.50422937  0.69866860     0.83900
C1035       C  0.99288583  0.91041119  0.63354796     0.83500
O1036       O  0.08548043  0.54672295  0.63825651    -0.77600
C1037       C  0.41437665  0.00558513  0.63331783     0.84400
O1038       O  0.08590752  0.49997466  0.67938443    -0.77700
C1039       C  0.41522067  0.91168168  0.69835684     0.84500
C1040       C  0.49401324  0.58315092  0.69828215     0.84800
O1041       O  0.49359151  0.55131300  0.70706592    -0.80100
C1042       C  0.29626881  0.84662069  0.79100132     0.04000
C1043       C  0.33257773  0.87301494  0.80267759    -0.12200
C1044       C  0.37365052  0.88546880  0.79564564     0.01500
C1045       C  0.37891014  0.87111125  0.77672057    -0.10700
C1046       C  0.34303575  0.84566593  0.76434880     0.04000
C1047       C  0.30126021  0.83246007  0.77172091    -0.10100
H1048       H  0.32888764  0.88511857  0.81723845     0.09600
H1049       H  0.41105310  0.88235654  0.77095513     0.07100
H1050       H  0.27351319  0.81422003  0.76204516     0.07000
C1051       C  0.34592373  0.79535667  0.71387133     0.04000
C1052       C  0.36947038  0.83277710  0.70215024    -0.12200
C1053       C  0.38547066  0.87363320  0.71056920     0.01500
C1054       C  0.37603473  0.87711994  0.73091241    -0.10700
C1055       C  0.35077898  0.84004383  0.74275091     0.04000
C1056       C  0.33623352  0.79899161  0.73426446    -0.14900
H1057       H  0.37802416  0.83017657  0.68658426     0.09600
H1058       H  0.38847236  0.90873811  0.73761357     0.07100
H1059       H  0.31830547  0.77043382  0.74349639     0.07000
C1060       C  0.15240581  0.95232003  0.79128487     0.04000
C1061       C  0.12636252  0.96246623  0.80304009    -0.12200
C1062       C  0.11377324  0.49099845  0.79599351     0.01500
C1063       C  0.12753313  0.51015980  0.77692814    -0.10700
C1064       C  0.15267023  0.49951821  0.76449071     0.04000
C1065       C  0.16616462  0.97121213  0.77192388    -0.10100
H1066       H  0.11448375  0.94679213  0.81764734     0.09600
H1067       H  0.11599429  0.53076087  0.77111513     0.07100
H1068       H  0.18421905  0.96159355  0.76221833     0.07000
C1069       C  0.12383554  0.01258641  0.71065880     0.04000
C1070       C  0.16443683  0.53733390  0.70204220    -0.12200
C1071       C  0.20201963  0.55177864  0.71370148     0.01500
C1072       C  0.19866045  0.53886738  0.73415979    -0.10700
C1073       C  0.15793700  0.01244320  0.74282786     0.04000
C1074       C  0.12071559  0.00019474  0.73108376    -0.10100
H1075       H  0.16677185  0.54813316  0.68642646     0.09600
H1076       H  0.22731649  0.54991511  0.74334450     0.07100
H1077       H  0.08925182  0.98114709  0.73793237     0.07000
O1078       O  0.08749204  0.53166233  0.81273114    -0.77600
C1079       C  0.00486204  0.58744314  0.80694335     0.83400
O1080       O  0.05209453  0.55948593  0.88162154    -0.78700
O1081       O  0.41343988  0.00366324  0.85295796    -0.80200
O1082       O  0.44092017  0.91106551  0.81179273    -0.80000
O1083       O  0.04723711  0.96037946  0.81234315    -0.78600
Zn1084     Zn  0.05127418  0.54861337  0.82940005     1.55700
O1085       O  0.41006602  0.95138156  0.81279128    -0.80000
Cd1086     Cd  0.99466794  0.94749990  0.82930750     1.59700
Cd1087     Cd  0.99939247  0.50035853  0.87138687     1.59600
O1088       O  0.49609725  0.91126295  0.85248972    -0.80000
O1089       O  0.99969828  0.50097848  0.84039322    -1.90500
Cd1090     Cd  0.45033900  0.50462393  0.82954631     1.59900
O1091       O  0.50638220  0.94785132  0.88146351    -0.80000
O1092       O  0.46738329  0.55800387  0.81186514    -0.78600
C1093       C  0.08281235  0.58902466  0.87115430     0.83900
C1094       C  0.08109815  0.49487932  0.80747990     0.83500
O1095       O  0.03830846  0.58666106  0.81244490    -0.77600
C1096       C  0.41046527  0.91772584  0.80721921     0.84400
O1097       O  0.08548881  0.58575475  0.85201997    -0.77700
C1098       C  0.50379926  0.91594099  0.87148615     0.84500
C1099       C  0.41058700  0.99589631  0.87194403     0.84800
O1100       O  0.44000826  0.99329989  0.88180252    -0.80100
O1101       O  0.29014728  0.57965967  0.52775515    -0.77600
C1102       C  0.25015483  0.67443709  0.53276540     0.83400
O1103       O  0.27923316  0.61042834  0.45784216    -0.78700
O1104       O  0.33675620  0.75747318  0.48757815    -0.80200
O1105       O  0.42100345  0.71368327  0.52775787    -0.80000
O1106       O  0.36089936  0.60658499  0.52837128    -0.78600
Zn1107     Zn  0.27828521  0.61883223  0.51052083     1.55700
O1108       O  0.39226624  0.75596944  0.52881981    -0.80000
Cd1109     Cd  0.37972736  0.66091017  0.51071430     1.59700
Cd1110     Cd  0.33176329  0.66785191  0.46897460     1.59600
O1111       O  0.41630284  0.66170642  0.48681987    -0.80000
O1112       O  0.33103888  0.66643981  0.50005183    -1.90500
Cd1113     Cd  0.33761341  0.72079994  0.51118458     1.59900
O1114       O  0.38955687  0.67306420  0.45826187    -0.80000
O1115       O  0.28497968  0.70852184  0.52829503    -0.78600
C1116       C  0.24815881  0.58030392  0.46779930     0.83900
C1117       C  0.32306170  0.57779959  0.53332588     0.83500
O1118       O  0.24254532  0.63736667  0.52710827    -0.77600
C1119       C  0.42190684  0.74797340  0.53342048     0.84400
O1120       O  0.24466213  0.58232361  0.48702678    -0.77700
C1121       C  0.41865183  0.66953318  0.46780327     0.84500
C1122       C  0.32988668  0.75306573  0.46845093     0.84800
O1123       O  0.32705821  0.72100918  0.45860831    -0.80100
C1124       C  0.17851709  0.71824499  0.54699469     0.04000
C1125       C  0.20385558  0.70612040  0.53573429    -0.12200
C1126       C  0.21761488  0.67943185  0.54395597     0.01500
C1127       C  0.20499226  0.66334831  0.56361661    -0.10700
C1128       C  0.18022393  0.67560718  0.57548946     0.04000
C1129       C  0.16694105  0.70328411  0.56713607    -0.10100
H1130       H  0.21474378  0.71915237  0.52058512     0.09600
H1131       H  0.21662949  0.64340202  0.57015910     0.07100
H1132       H  0.14883215  0.71372298  0.57629551     0.07000
C1133       C  0.20627615  0.65405978  0.62786497     0.04000
C1134       C  0.16565575  0.62504851  0.63533182    -0.12200
C1135       C  0.12860127  0.61529865  0.62434167     0.01500
C1136       C  0.13234130  0.63450729  0.60516632    -0.10700
C1137       C  0.17360499  0.66292466  0.59720296     0.04000
C1138       C  0.21027149  0.67370243  0.60905021    -0.10100
H1139       H  0.16286548  0.60949777  0.64987654     0.09600
H1140       H  0.10395338  0.62517276  0.59601257     0.07100
H1141       H  0.24204842  0.69489712  0.60292302     0.07000
C1142       C  0.03773709  0.81947267  0.54759994     0.04000
C1143       C  0.00015425  0.79359001  0.53647518    -0.12200
C1144       C  0.45975756  0.77965393  0.54480574     0.01500
C1145       C  0.45651818  0.79246249  0.56446605    -0.10700
C1146       C  0.49375909  0.81758374  0.57620700     0.04000
C1147       C  0.03463300  0.83117299  0.56772004    -0.10100
H1148       H  0.00221869  0.78283367  0.52128494     0.09600
H1149       H  0.42498324  0.78087139  0.57107899     0.07100
H1150       H  0.06336151  0.84970798  0.57675116     0.07000
C1151       C  0.48707523  0.86990861  0.62520141     0.04000
C1152       C  0.00146740  0.86589658  0.60580853    -0.12200
C1153       C  0.48821492  0.82447884  0.59792086     0.01500
C1154       C  0.46250851  0.78793605  0.60989033    -0.10700
C1155       C  0.44773257  0.79222318  0.62886906     0.04000
C1156       C  0.46030828  0.83299083  0.63643893    -0.10100
H1157       H  0.01982355  0.89413014  0.59643656     0.09600
H1158       H  0.45121396  0.75604614  0.60372181     0.07100
H1159       H  0.44786027  0.83597485  0.65103430     0.07000
C1160       C  0.31619900  0.53980188  0.54480426     0.04000
C1161       C  0.28953453  0.49938370  0.53643790    -0.12200
C1162       C  0.27810337  0.96172713  0.54744583     0.01500
C1163       C  0.29336234  0.96481165  0.56748191    -0.10700
C1164       C  0.32066675  0.50564552  0.57603459     0.04000
C1165       C  0.33259212  0.54297694  0.56440088    -0.10100
H1166       H  0.27652268  0.49738994  0.52130091     0.09600
H1167       H  0.28333961  0.93602754  0.57644060     0.07100
H1168       H  0.35274612  0.57450406  0.57103594     0.07000
C1169       C  0.38001692  0.01191216  0.62493954     0.04000
C1170       C  0.36927723  0.53796950  0.63642901    -0.12200
C1171       C  0.34072573  0.55021384  0.62905027     0.01500
C1172       C  0.32200107  0.53600460  0.60994888    -0.10700
C1173       C  0.33337590  0.01099917  0.59773381     0.04000
C1174       C  0.36171321  0.99789841  0.60547572    -0.10100
H1175       H  0.38459635  0.55013829  0.65108278     0.09600
H1176       H  0.30135035  0.54725238  0.60389066     0.07100
H1177       H  0.37171484  0.97987574  0.59596887     0.07000
O1178       O  0.24443126  0.62648288  0.64500173    -0.77600
C1179       C  0.33663178  0.58321300  0.64018994     0.83400
O1180       O  0.27307165  0.61387234  0.71409028    -0.78700
O1181       O  0.42013645  0.66889229  0.68513800    -0.80200
O1182       O  0.38097375  0.75522635  0.64517913    -0.80000
O1183       O  0.27379350  0.69756141  0.64367986    -0.78600
Zn1184     Zn  0.28261818  0.61332943  0.66187481     1.55700
O1185       O  0.42110432  0.72413831  0.64442135    -0.80000
Cd1186     Cd  0.32713060  0.71480583  0.66155534     1.59700
Cd1187     Cd  0.33137409  0.66603518  0.70347426     1.59600
O1188       O  0.32778568  0.75175080  0.68504689    -0.80000
O1189       O  0.33052940  0.66528066  0.67253904    -1.90500
Cd1190     Cd  0.38412019  0.67015158  0.66175192     1.59900
O1191       O  0.33780650  0.72469648  0.71382108    -0.80000
O1192       O  0.37111624  0.61726501  0.64498411    -0.78600
C1193       C  0.24319739  0.58276298  0.70399558     0.83900
C1194       C  0.24386528  0.65993712  0.63920380     0.83500
O1195       O  0.29980682  0.57690884  0.64529555    -0.77600
C1196       C  0.41478544  0.75487050  0.63990163     0.84400
O1197       O  0.24567483  0.57928758  0.68483736    -0.77700
C1198       C  0.33518729  0.75416092  0.70407959     0.84500
C1199       C  0.41545890  0.66192830  0.70419390     0.84800
O1200       O  0.38363840  0.65976330  0.71398274    -0.80100
O1201       O  0.75485640  0.36457153  0.47841286    -0.77600
C1202       C  0.67297410  0.42301399  0.47233459     0.83400
O1203       O  0.71704589  0.39042089  0.54734854    -0.78700
O1204       O  0.58058497  0.33834260  0.51850214    -0.80200
O1205       O  0.60566002  0.24453549  0.47686557    -0.80000
O1206       O  0.71336655  0.29326012  0.47746255    -0.78600
Zn1207     Zn  0.71848582  0.38251173  0.49480520     1.55700
O1208       O  0.57592755  0.28595141  0.47791248    -0.80000
Cd1209     Cd  0.66033179  0.28045513  0.49429669     1.59700
Cd1210     Cd  0.66546055  0.33310752  0.53617756     1.59600
O1211       O  0.66139873  0.24415361  0.51794281    -0.80000
O1212       O  0.66614915  0.33453201  0.50520288    -1.90500
Cd1213     Cd  0.61707684  0.33928826  0.49459625     1.59900
O1214       O  0.67087203  0.28083667  0.54678845    -0.80000
O1215       O  0.63525602  0.39356832  0.47704871    -0.78600
C1216       C  0.74793958  0.42072530  0.53744478     0.83900
C1217       C  0.74795725  0.32760004  0.47300975     0.83500
O1218       O  0.70616839  0.42163169  0.47784858    -0.77600
C1219       C  0.57544033  0.25177212  0.47242451     0.84400
O1220       O  0.75168669  0.41894538  0.51824008    -0.77700
C1221       C  0.66826762  0.24882522  0.53705232     0.84500
C1222       C  0.57851477  0.33042892  0.53749482     0.84800
O1223       O  0.60781705  0.32717417  0.54692877    -0.80100
C1224       C  0.79190459  0.34702466  0.37774215     0.04000
C1225       C  0.83248401  0.37434005  0.36967920    -0.12200
C1226       C  0.86997300  0.38538970  0.38077617     0.01500
C1227       C  0.86637484  0.36915774  0.40067593    -0.10700
C1228       C  0.82527378  0.34108056  0.40888214     0.04000
C1229       C  0.78832804  0.32949286  0.39707527    -0.10100
H1230       H  0.83474967  0.38814106  0.35471283     0.09600
H1231       H  0.89489509  0.37897944  0.40979680     0.07100
H1232       H  0.75667904  0.30895326  0.40348110     0.07000
C1233       C  0.81984192  0.28407691  0.45865616     0.04000
C1234       C  0.83193348  0.29995899  0.43865608    -0.12200
C1235       C  0.81907773  0.32826153  0.43057701     0.01500
C1236       C  0.79430650  0.34024685  0.44256059    -0.10700
C1237       C  0.78093173  0.32309312  0.46198101     0.04000
C1238       C  0.79424408  0.29581756  0.46996763    -0.10100
H1239       H  0.85003428  0.28970364  0.42937551     0.09600
H1240       H  0.78292143  0.36054773  0.43618885     0.07100
H1241       H  0.78284145  0.28206870  0.48496008     0.07000
C1242       C  0.51127369  0.12758185  0.38091297     0.04000
C1243       C  0.99833968  0.13135717  0.40070939    -0.12200
C1244       C  0.51124912  0.17262991  0.40869077     0.01500
C1245       C  0.53671312  0.20941798  0.39679883    -0.10700
C1246       C  0.55104915  0.20557195  0.37764545     0.04000
C1247       C  0.53792079  0.16491750  0.36976695    -0.10100
H1248       H  0.97944114  0.10292518  0.40987732     0.09600
H1249       H  0.54776008  0.24119680  0.40305379     0.07100
H1250       H  0.54966212  0.16244318  0.35488982     0.07000
C1251       C  0.95967596  0.18017252  0.45791052     0.04000
C1252       C  0.96336145  0.16692645  0.43817189    -0.12200
C1253       C  0.50453974  0.17942789  0.43025221     0.01500
C1254       C  0.54134670  0.20479143  0.44215537    -0.10700
C1255       C  0.53763880  0.21948354  0.46125049     0.04000
C1256       C  0.99704467  0.20673922  0.46906230    -0.10100
H1257       H  0.93493515  0.14811310  0.42899195     0.09600
H1258       H  0.57305767  0.21557845  0.43592334     0.07100
H1259       H  0.99464845  0.21873019  0.48389098     0.07000
C1260       C  0.67925537  0.46092943  0.46099498     0.04000
C1261       C  0.66151656  0.45725709  0.44171696    -0.12200
C1262       C  0.67299371  0.49415309  0.42988257     0.01500
C1263       C  0.70112861  0.03536649  0.43804161    -0.10700
C1264       C  0.71754467  0.03906409  0.45792814     0.04000
C1265       C  0.70659879  0.50156284  0.46902807    -0.10100
H1266       H  0.64088804  0.42553837  0.43536402     0.09600
H1267       H  0.71083983  0.06386824  0.42891040     0.07100
H1268       H  0.72049562  0.50386159  0.48397292     0.07000
C1269       C  0.61474473  0.98769397  0.38035567     0.04000
C1270       C  0.63123761  0.00034442  0.40023528    -0.12200
C1271       C  0.65973171  0.98765130  0.40822027     0.01500
C1272       C  0.67134948  0.46250557  0.39624444    -0.10700
C1273       C  0.65357969  0.44856259  0.37695400     0.04000
C1274       C  0.62607520  0.46168132  0.36908387    -0.10100
H1275       H  0.62132770  0.01876932  0.40949561     0.09600
H1276       H  0.69183719  0.45128499  0.40254098     0.07100
H1277       H  0.61192229  0.44995479  0.35418362     0.07000
O1278       O  0.69506130  0.42244347  0.36054330    -0.77600
C1279       C  0.75397542  0.34066075  0.36638842     0.83400
O1280       O  0.72103471  0.38461933  0.29158179    -0.78700
O1281       O  0.66864327  0.24796646  0.32000761    -0.80200
O1282       O  0.57568212  0.27331100  0.36186325    -0.80000
O1283       O  0.62381199  0.38100098  0.36130065    -0.78600
Zn1284     Zn  0.71309430  0.38610660  0.34412228     1.55700
O1285       O  0.61735525  0.24383804  0.36093071    -0.80000
Cd1286     Cd  0.61121058  0.32793536  0.34442602     1.59700
Cd1287     Cd  0.66372916  0.33313727  0.30261060     1.59600
O1288       O  0.57471868  0.32872090  0.32079337    -0.80000
O1289       O  0.66527950  0.33377562  0.33357571    -1.90500
Cd1290     Cd  0.67035005  0.28472692  0.34401540     1.59900
O1291       O  0.61166468  0.33875456  0.29200698    -0.80000
O1292       O  0.72490363  0.30293746  0.36138622    -0.78600
C1293       C  0.75133202  0.41548705  0.30150553     0.83900
C1294       C  0.65809607  0.41556662  0.36587455     0.83500
O1295       O  0.75223278  0.37382945  0.36113221    -0.77600
C1296       C  0.58316411  0.24328505  0.36640494     0.84400
O1297       O  0.74954637  0.41933918  0.32070658    -0.77700
C1298       C  0.57954113  0.33586664  0.30170819     0.84500
C1299       C  0.66058528  0.24597079  0.30102789     0.84800
O1300       O  0.65750024  0.27545630  0.29166766    -0.80100
C1301       C  0.87029179  0.48293523  0.29403504     0.04000
C1302       C  0.82993056  0.45693684  0.30254798    -0.12200
C1303       C  0.79230469  0.44535464  0.29150155     0.01500
C1304       C  0.79538871  0.45988385  0.27132625    -0.10700
C1305       C  0.83621272  0.48655982  0.26264604     0.04000
C1306       C  0.87345615  0.99844208  0.27424524    -0.10100
H1307       H  0.82794288  0.44447047  0.31781064     0.09600
H1308       H  0.76661137  0.44986194  0.26237520     0.07100
H1309       H  0.90495415  0.01813642  0.26753089     0.07000
C1310       C  0.84234827  0.04596738  0.21391968     0.04000
C1311       C  0.86833013  0.03546703  0.20233140    -0.12200
C1312       C  0.88069093  0.50693715  0.20960199     0.01500
C1313       C  0.86655442  0.48800624  0.22868087    -0.10700
C1314       C  0.84145095  0.49906535  0.24094406     0.04000
C1315       C  0.82830367  0.02741766  0.23330646    -0.10100
H1316       H  0.88039631  0.05092788  0.18769880     0.09600
H1317       H  0.87787946  0.46735737  0.23466874     0.07100
H1318       H  0.81031249  0.03734882  0.24287455     0.07000
O1319       O  0.95692855  0.41104477  0.19337228    -0.77600
C1320       C  0.91364746  0.50305081  0.19833610     0.83400
O1321       O  0.94341142  0.43889946  0.12420565    -0.78700
O1322       O  0.99849474  0.08645121  0.15304518    -0.80200
O1323       O  0.58539882  0.04780003  0.19313655    -0.80000
O1324       O  0.52792465  0.44051306  0.19458769    -0.78600
Zn1325     Zn  0.94381410  0.44928751  0.17648718     1.55700
O1326       O  0.55453302  0.08813644  0.19385691    -0.80000
Cd1327     Cd  0.54502258  0.49392286  0.17666870     1.59700
Cd1328     Cd  0.99606122  0.49776205  0.13457491     1.59600
O1329       O  0.58190577  0.99459825  0.15312923    -0.80000
O1330       O  0.99553241  0.49727704  0.16563123    -1.90500
Cd1331     Cd  0.00032575  0.05087505  0.17654699     1.59900
O1332       O  0.55505226  0.00418726  0.12418918    -0.80000
O1333       O  0.94753611  0.03762723  0.19349335    -0.78600
C1334       C  0.91258103  0.40919545  0.13453641     0.83900
C1335       C  0.99039271  0.41055743  0.19915876     0.83500
O1336       O  0.90741371  0.46626834  0.19314641    -0.77600
C1337       C  0.58516029  0.08169742  0.19844167     0.84400
O1338       O  0.90966782  0.41216607  0.15368947    -0.77700
C1339       C  0.58451790  0.00176030  0.13406538     0.84500
C1340       C  0.99167784  0.08200820  0.13396105     0.84800
O1341       O  0.98972144  0.05030359  0.12407743    -0.80100
C1342       C  0.64924252  0.20508967  0.29087111     0.04000
C1343       C  0.62320599  0.16754622  0.30198825    -0.12200
C1344       C  0.60919744  0.12707397  0.29369222     0.01500
C1345       C  0.62192576  0.12366902  0.27404452    -0.10700
C1346       C  0.64718353  0.16086093  0.26229760     0.04000
C1347       C  0.66094085  0.20185319  0.27076335    -0.10100
H1348       H  0.61251780  0.16970932  0.31717500     0.09600
H1349       H  0.61031048  0.09205696  0.26747313     0.07100
H1350       H  0.67968901  0.23056460  0.26174573     0.07000
C1351       C  0.70004309  0.15292007  0.21381414     0.04000
C1352       C  0.69581804  0.16773606  0.23305611    -0.12200
C1353       C  0.65438258  0.15512911  0.24064558     0.01500
C1354       C  0.61803480  0.12967296  0.22849946    -0.10700
C1355       C  0.62248098  0.11448715  0.20963904     0.04000
C1356       C  0.66330445  0.12638027  0.20240456    -0.10100
H1357       H  0.72386753  0.18594416  0.24255735     0.09600
H1358       H  0.58611567  0.11884426  0.23446612     0.07100
H1359       H  0.66645716  0.11368286  0.18791216     0.07000
C1360       C  0.54907583  0.34627430  0.29177938     0.04000
C1361       C  0.53729481  0.37189134  0.30302926    -0.12200
C1362       C  0.01074262  0.38580614  0.29482841     0.01500
C1363       C  0.99451250  0.37314835  0.27518081    -0.10700
C1364       C  0.00643488  0.34808714  0.26331536     0.04000
C1365       C  0.53393473  0.33458909  0.27166625    -0.10100
H1366       H  0.55042281  0.38279208  0.31816698     0.09600
H1367       H  0.97461999  0.38486643  0.26866605     0.07100
H1368       H  0.54409097  0.31620920  0.26252589     0.07000
C1369       C  0.99344433  0.34112199  0.24163195     0.04000
C1370       C  0.96527836  0.29963498  0.23378744    -0.12200
C1371       C  0.94618776  0.29541001  0.21454362     0.01500
C1372       C  0.95587349  0.33225440  0.20333534    -0.10700
C1373       C  0.98463334  0.37313961  0.21068969     0.04000
C1374       C  0.50401250  0.37757473  0.22962656    -0.10100
H1375       H  0.95605537  0.27142240  0.24307263     0.09600
H1376       H  0.94037453  0.32908588  0.18874034     0.07100
H1377       H  0.52498733  0.40951604  0.23566829     0.07000
O1378       O  0.91054945  0.45728873  0.31097107    -0.77600
C1379       C  0.00571347  0.41824279  0.30610481     0.83400
O1380       O  0.94124064  0.44704430  0.38092922    -0.78700
O1381       O  0.58833006  0.00487442  0.35147161    -0.80200
O1382       O  0.54326567  0.08804364  0.31065216    -0.80000
O1383       O  0.93651425  0.02794356  0.31067787    -0.78600
Zn1384     Zn  0.94984800  0.44593928  0.32831468     1.55700
O1385       O  0.58641577  0.06025599  0.31017911    -0.80000
Cd1386     Cd  0.99111214  0.04716002  0.32809303     1.59700
Cd1387     Cd  0.99865626  0.49951873  0.36988897     1.59600
O1388       O  0.49247809  0.08411573  0.35199134    -0.80000
O1389       O  0.99721067  0.49878889  0.33882563    -1.90500
Cd1390     Cd  0.55170158  0.50562139  0.32784152     1.59900
O1391       O  0.50383735  0.05732526  0.38054664    -0.80000
O1392       O  0.53971245  0.45311231  0.31063895    -0.78600
C1393       C  0.91118065  0.41594220  0.37094782     0.83900
C1394       C  0.90823031  0.49004762  0.30556284     0.83500
O1395       O  0.96864358  0.41045349  0.31177580    -0.77600
C1396       C  0.57780968  0.08931442  0.30519465     0.84400
O1397       O  0.91327667  0.41233546  0.35173746    -0.77700
C1398       C  0.50038689  0.08647787  0.37100770     0.84500
C1399       C  0.58381076  0.99784396  0.37058197     0.84800
O1400       O  0.55166878  0.99483492  0.38038029    -0.80100
O1401       O  0.88921456  0.13622622  0.02578513    -0.77600
C1402       C  0.74953003  0.07715962  0.03161471     0.83400
O1403       O  0.82483088  0.10773787  0.95641389    -0.78700
O1404       O  0.74169704  0.16187383  0.98507877    -0.80200
O1405       O  0.85984297  0.25479212  0.02688161    -0.80000
O1406       O  0.91908126  0.20749563  0.02628398    -0.78600
Zn1407     Zn  0.83541709  0.11778861  0.00895812     1.55700
O1408       O  0.78872725  0.21241567  0.02622633    -0.80000
Cd1409     Cd  0.87887884  0.21970257  0.00908605     1.59700
Cd1410     Cd  0.83165255  0.16640703  0.96711085     1.59600
O1411       O  0.91655988  0.25623738  0.98559441    -0.80000
O1412       O  0.83084946  0.16531464  0.99816788    -1.90500
Cd1413     Cd  0.77686769  0.16009792  0.00886772     1.59900
O1414       O  0.89084945  0.21865959  0.95680634    -0.80000
O1415       O  0.74066271  0.10588282  0.02641791    -0.78600
C1416       C  0.82604177  0.07803215  0.96662727     0.83900
C1417       C  0.91907430  0.17330042  0.03122491     0.83500
O1418       O  0.78428491  0.07885705  0.02618246    -0.77600
C1419       C  0.82231144  0.24660307  0.03184628     0.84400
O1420       O  0.83239077  0.08095351  0.98578740    -0.77700
C1421       C  0.91986201  0.25104877  0.96663076     0.84500
C1422       C  0.74760588  0.17055445  0.96615609     0.84800
O1423       O  0.78003493  0.17370034  0.95653917    -0.80100
C1424       C  0.77784607  0.31650449  0.04866250     0.04000
C1425       C  0.78838752  0.29059708  0.03683814    -0.12200
C1426       C  0.81655905  0.27764730  0.04392483     0.01500
C1427       C  0.83512495  0.29092207  0.06311981    -0.10700
C1428       C  0.82404339  0.31564955  0.07564326     0.04000
C1429       C  0.79530604  0.32868784  0.06837083    -0.10100
H1430       H  0.77379811  0.27954583  0.02195603     0.09600
H1431       H  0.85616476  0.27984189  0.06883898     0.07100
H1432       H  0.78619190  0.34726038  0.07799991     0.07000
C1433       C  0.88114228  0.36756834  0.12524145     0.04000
C1434       C  0.86761759  0.33038507  0.13715002    -0.12200
C1435       C  0.84154506  0.28932970  0.12907202     0.01500
C1436       C  0.82695888  0.28537268  0.10903177    -0.10700
C1437       C  0.83839627  0.32206649  0.09707175     0.04000
C1438       C  0.86617336  0.36333978  0.10509655    -0.10100
H1439       H  0.87990787  0.33324701  0.15250349     0.09600
H1440       H  0.80697296  0.25360231  0.10259581     0.07100
H1441       H  0.87653794  0.39159470  0.09567984     0.07000
C1442       C  0.67970882  0.46203872  0.04800118     0.04000
C1443       C  0.70606305  0.49882741  0.03640245    -0.12200
C1444       C  0.71855127  0.03988430  0.04356759     0.01500
C1445       C  0.70421555  0.04472474  0.06258964    -0.10700
C1446       C  0.67897418  0.00858306  0.07490274     0.04000
C1447       C  0.66653715  0.46694494  0.06755211    -0.10100
H1448       H  0.71782452  0.49562084  0.02166075     0.09600
H1449       H  0.71485854  0.07677494  0.06836933     0.07100
H1450       H  0.64774987  0.43902249  0.07704832     0.07000
C1451       C  0.62604295  0.01243044  0.12452455     0.04000
C1452       C  0.63052554  0.50229319  0.10428000    -0.12200
C1453       C  0.67196204  0.01608335  0.09635086     0.01500
C1454       C  0.70842639  0.04097776  0.10853804    -0.10700
C1455       C  0.70415225  0.05102198  0.12863986     0.04000
C1456       C  0.66305928  0.03587771  0.13655226    -0.10100
H1457       H  0.60241571  0.48453880  0.09475885     0.09600
H1458       H  0.74027977  0.05287739  0.10224609     0.07100
H1459       H  0.66004325  0.04492281  0.15196570     0.07000
C1460       C  0.53349405  0.21645126  0.04773887     0.04000
C1461       C  0.99703466  0.20597685  0.03592807    -0.12200
C1462       C  0.95577115  0.17793411  0.04303919     0.01500
C1463       C  0.95036056  0.15917170  0.06219987    -0.10700
C1464       C  0.98617132  0.16994490  0.07469511     0.04000
C1465       C  0.52806629  0.19875852  0.06742199    -0.10100
H1466       H  0.00065831  0.22083029  0.02111369     0.09600
H1467       H  0.91815985  0.13831956  0.06794361     0.07100
H1468       H  0.55574867  0.20784908  0.07705959     0.07000
C1469       C  0.98111376  0.11285754  0.12435834     0.04000
C1470       C  0.95767489  0.12649229  0.13628895    -0.12200
C1471       C  0.94284009  0.15262354  0.12831562     0.01500
C1472       C  0.95310807  0.16696629  0.10820898    -0.10700
C1473       C  0.97814996  0.15540869  0.09614374     0.04000
C1474       C  0.49163889  0.12763465  0.10415802    -0.10100
H1475       H  0.94844683  0.11438980  0.15168751     0.09600
H1476       H  0.94139196  0.18699519  0.10184798     0.07100
H1477       H  0.50948071  0.11728424  0.09473276     0.07000
O1478       O  0.77025341  0.19547853  0.19981219    -0.77600
C1479       C  0.91283243  0.25430249  0.20591742     0.83400
O1480       O  0.83328928  0.21971396  0.13196278    -0.78700
O1481       O  0.91894626  0.16513994  0.15990694    -0.80200
O1482       O  0.79866071  0.07252009  0.20049705    -0.80000
O1483       O  0.74190506  0.12438431  0.20222439    -0.78600
Zn1484     Zn  0.82582652  0.21379010  0.18403274     1.55700
O1485       O  0.86985152  0.11593971  0.20162321    -0.80000
Cd1486     Cd  0.78007007  0.11045295  0.18435430     1.59700
Cd1487     Cd  0.82961678  0.16424757  0.14335572     1.59600
O1488       O  0.74043165  0.07557255  0.16024759    -0.80000
O1489       O  0.82987183  0.16501789  0.17404486    -1.90500
Cd1490     Cd  0.88411156  0.16909863  0.18425395     1.59900
O1491       O  0.77377002  0.11221310  0.13220837    -0.80000
O1492       O  0.92164665  0.22530079  0.20094713    -0.78600
C1493       C  0.83380620  0.25128941  0.14105538     0.83900
C1494       C  0.74061932  0.15857521  0.20570030     0.83500
O1495       O  0.87722570  0.25164917  0.20121038    -0.77600
C1496       C  0.83604145  0.08041082  0.20572252     0.84400
O1497       O  0.83029554  0.25202946  0.16036288    -0.77700
C1498       C  0.74188590  0.08076838  0.14097728     0.84500
C1499       C  0.91325164  0.16073346  0.14066486     0.84800
O1500       O  0.88138422  0.16038741  0.13199159    -0.80100
O1501       O  0.71016309  0.41936938  0.97919220    -0.77600
C1502       C  0.57610020  0.32487216  0.97396825     0.83400
O1503       O  0.66999969  0.39055787  0.04894058    -0.78700
O1504       O  0.57880504  0.24195233  0.01948006    -0.80200
O1505       O  0.70698712  0.28668059  0.97909591    -0.80000
O1506       O  0.75417640  0.39279231  0.97906536    -0.78600
Zn1507     Zn  0.65931807  0.38043007  0.99644760     1.55700
O1508       O  0.63591588  0.24418920  0.97816659    -0.80000
Cd1509     Cd  0.71838510  0.33866028  0.99657538     1.59700
Cd1510     Cd  0.66351492  0.33196045  0.03823842     1.59600
O1511       O  0.75382768  0.33720730  0.02030932    -0.80000
O1512       O  0.66425946  0.33311286  0.00719333    -1.90500
Cd1513     Cd  0.61653623  0.27877917  0.99607200     1.59900
O1514       O  0.71538695  0.32492426  0.04883807    -0.80000
O1515       O  0.57637392  0.29077312  0.97878009    -0.78600
C1516       C  0.66867797  0.42021001  0.03871946     0.83900
C1517       C  0.74500333  0.42124209  0.97379920     0.83500
O1518       O  0.60557444  0.36193987  0.97962574    -0.77600
C1519       C  0.67354185  0.25258150  0.97328770     0.84400
O1520       O  0.66232788  0.41725669  0.01956626    -0.77700
C1521       C  0.74796002  0.32838847  0.03921652     0.84500
C1522       C  0.57542824  0.24701470  0.03845291     0.84800
O1523       O  0.60432198  0.27939313  0.04833951    -0.80100
C1524       C  0.61448507  0.13082712  0.88021640     0.04000
C1525       C  0.62814128  0.16770643  0.86804621    -0.12200
C1526       C  0.65460849  0.20892274  0.87583849     0.01500
C1527       C  0.66943548  0.21334981  0.89586457    -0.10700
C1528       C  0.65784538  0.17694544  0.90807019     0.04000
C1529       C  0.62971316  0.13551638  0.90032138    -0.10100
H1530       H  0.61563811  0.16453365  0.85271837     0.09600
H1531       H  0.68964085  0.24526238  0.90211063     0.07100
H1532       H  0.61926795  0.10750284  0.90992294     0.07000
C1533       C  0.71796025  0.18261228  0.95663136     0.04000
C1534       C  0.70744578  0.20861311  0.96838162    -0.12200
C1535       C  0.67954956  0.22178231  0.96116312     0.01500
C1536       C  0.66129013  0.20870167  0.94189514    -0.10700
C1537       C  0.67230658  0.18378527  0.92947596     0.04000
C1538       C  0.70075768  0.17052321  0.93688256    -0.10100
H1539       H  0.72180014  0.21952097  0.98331743     0.09600
H1540       H  0.64040644  0.21989120  0.93608655     0.07100
H1541       H  0.70980121  0.15178130  0.92733493     0.07000
C1542       C  0.86878971  0.48476272  0.88129302     0.04000
C1543       C  0.83202775  0.46116365  0.86910139    -0.12200
C1544       C  0.79075831  0.44627670  0.87672573     0.01500
C1545       C  0.78607788  0.45655991  0.89673809    -0.10700
C1546       C  0.82232500  0.48162285  0.90904996     0.04000
C1547       C  0.86390809  0.99526099  0.90139865    -0.10100
H1548       H  0.83539269  0.45199567  0.85376551     0.09600
H1549       H  0.75410363  0.44479867  0.90285014     0.07100
H1550       H  0.89182616  0.01321831  0.91101031     0.07000
C1551       C  0.81478249  0.03616522  0.95732551     0.04000
C1552       C  0.78839699  0.49946308  0.96895051    -0.12200
C1553       C  0.77574054  0.45837771  0.96178686     0.01500
C1554       C  0.78981396  0.45333902  0.94275353    -0.10700
C1555       C  0.81504521  0.48935798  0.93040719     0.04000
C1556       C  0.82774395  0.03111133  0.93774120    -0.10100
H1557       H  0.77675688  0.00274800  0.98371442     0.09600
H1558       H  0.77909260  0.42123311  0.93702619     0.07100
H1559       H  0.84664087  0.05897622  0.92823050     0.07000
C1560       C  0.01451119  0.38501846  0.88082816     0.04000
C1561       C  0.53777035  0.37143990  0.86870253    -0.12200
C1562       C  0.55248120  0.34502161  0.87647185     0.01500
C1563       C  0.54224487  0.33039203  0.89655964    -0.10700
C1564       C  0.01731286  0.34187425  0.90876108     0.04000
C1565       C  0.00400872  0.36991246  0.90095673    -0.10100
H1566       H  0.54691030  0.38377226  0.85333200     0.09600
H1567       H  0.55389950  0.31021518  0.90280142     0.07100
H1568       H  0.98626961  0.38019788  0.91049668     0.07000
C1569       C  0.96182016  0.28146754  0.95729975     0.04000
C1570       C  0.96733406  0.29864240  0.93749432    -0.12200
C1571       C  0.50927310  0.32720969  0.93018038     0.01500
C1572       C  0.54503888  0.33820821  0.94272716    -0.10700
C1573       C  0.53951837  0.32008935  0.96204603     0.04000
C1574       C  0.99824412  0.29231704  0.96920812    -0.10100
H1575       H  0.93968234  0.28941823  0.92781549     0.09600
H1576       H  0.57726319  0.35887331  0.93696374     0.07100
H1577       H  0.99460469  0.27789713  0.98413515     0.07000
O1578       O  0.72595547  0.30332031  0.80484264    -0.77600
C1579       C  0.66212877  0.24669885  0.86369400     0.83400
O1580       O  0.57407475  0.27231607  0.80382358    -0.78700
O1581       O  0.61381614  0.33714083  0.87267411    -0.80200
O1582       O  0.75495752  0.42223407  0.84491835    -0.80000
O1583       O  0.75364004  0.37437109  0.80250307    -0.78600
Zn1584     Zn  0.67018082  0.28428148  0.82066308     1.55700
O1585       O  0.72120631  0.38516302  0.87279044    -0.80000
Cd1586     Cd  0.71536245  0.38785375  0.82059744     1.59700
Cd1587     Cd  0.61142057  0.32876929  0.82039737     1.59600
O1588       O  0.69633999  0.42600365  0.80477550    -0.80000
O1589       O  0.66569365  0.33289773  0.83066359    -1.90500
Cd1590     Cd  0.66560415  0.33337688  0.86134736     1.59900
O1591       O  0.62533297  0.38187519  0.80297624    -0.80000
O1592       O  0.66200279  0.27802757  0.87268871    -0.78600
C1593       C  0.58295054  0.24332878  0.79889329     0.83900
C1594       C  0.75533156  0.34039729  0.79897693     0.83500
O1595       O  0.66603583  0.24599841  0.84439676    -0.77600
C1596       C  0.75323981  0.41672619  0.86418217     0.84400
O1597       O  0.61869282  0.24616323  0.80351474    -0.77700
C1598       C  0.65898691  0.41782151  0.79927080     0.84500
C1599       C  0.58204042  0.33699054  0.86401835     0.84800
O1600       O  0.57643410  0.33277501  0.84475858    -0.80100
C1601       C  0.94618778  0.15141040  0.71393533     0.04000
C1602       C  0.96028246  0.12815359  0.70214882    -0.12200
C1603       C  0.98563757  0.11273755  0.71047456     0.01500
C1604       C  0.49875984  0.12237918  0.73077345    -0.10700
C1605       C  0.48673178  0.14731154  0.74267522     0.04000
C1606       C  0.95976927  0.16132654  0.73430177    -0.10100
H1607       H  0.94900141  0.11940092  0.68660534     0.09600
H1608       H  0.51827215  0.11032408  0.73739939     0.07100
H1609       H  0.94904840  0.17905553  0.74358664     0.07000
C1610       C  0.54938860  0.20192092  0.79060208     0.04000
C1611       C  0.54003197  0.16551173  0.80207597    -0.12200
C1612       C  0.51054571  0.12444457  0.79521574     0.01500
C1613       C  0.99015889  0.11924547  0.77651890    -0.10700
C1614       C  0.50043772  0.15514542  0.76422378     0.04000
C1615       C  0.52930424  0.19694914  0.77156308    -0.10100
H1616       H  0.55620020  0.16915437  0.81652227     0.09600
H1617       H  0.96866651  0.08708753  0.77085105     0.07100
H1618       H  0.53822831  0.22477564  0.76203511     0.07000
O1619       O  0.52964224  0.43981715  0.63964291    -0.77600
C1620       C  0.58789691  0.08203304  0.63319767     0.83400
O1621       O  0.55410200  0.00418617  0.70765293    -0.78700
O1622       O  0.99894655  0.08882675  0.67904935    -0.80200
O1623       O  0.90639308  0.46819676  0.63865778    -0.80000
O1624       O  0.95869781  0.41183463  0.63694278    -0.78600
Zn1625     Zn  0.54795271  0.99535430  0.65552752     1.55700
O1626       O  0.94987400  0.03941148  0.63742261    -0.80000
Cd1627     Cd  0.94458446  0.44982618  0.65487341     1.59700
Cd1628     Cd  0.49837539  0.99971636  0.69599557     1.59600
O1629       O  0.91000118  0.41033398  0.67906642    -0.80000
O1630       O  0.49915757  0.99959400  0.66527408    -1.90500
Cd1631     Cd  0.00294846  0.05363449  0.65485315     1.59900
O1632       O  0.94647511  0.44357292  0.70717480    -0.80000
O1633       O  0.55878453  0.09077457  0.63797713    -0.78600
C1634       C  0.58552456  0.00423201  0.69866974     0.83900
C1635       C  0.49281866  0.41043613  0.63353094     0.83500
O1636       O  0.58558784  0.04670356  0.63825336    -0.77600
C1637       C  0.91424229  0.50555620  0.63332976     0.84400
O1638       O  0.58601822  0.99996725  0.67938605    -0.77700
C1639       C  0.91512763  0.41165423  0.69834944     0.84500
C1640       C  0.99412271  0.08315543  0.69828118     0.84800
O1641       O  0.99370722  0.05132202  0.70706670    -0.80100
C1642       C  0.79624066  0.34660870  0.79099534     0.04000
C1643       C  0.83255172  0.37301349  0.80266793    -0.12200
C1644       C  0.87362289  0.38545904  0.79563688     0.01500
C1645       C  0.87887895  0.37108353  0.77671555    -0.10700
C1646       C  0.84300166  0.34562679  0.76434680     0.04000
C1647       C  0.80122786  0.33242965  0.77171874    -0.10100
H1648       H  0.82886428  0.38512792  0.81722566     0.09600
H1649       H  0.91102002  0.38232399  0.77094977     0.07100
H1650       H  0.77347801  0.31418129  0.76204475     0.07000
C1651       C  0.84593615  0.29532312  0.71387312     0.04000
C1652       C  0.86944291  0.33274531  0.70214822    -0.12200
C1653       C  0.88540031  0.37359849  0.71056295     0.01500
C1654       C  0.87595948  0.37707967  0.73090578    -0.10700
C1655       C  0.85074226  0.34000130  0.74274874     0.04000
C1656       C  0.83624119  0.29895224  0.73426674    -0.14900
H1657       H  0.87800282  0.33015237  0.68658217     0.09600
H1658       H  0.88836787  0.40869710  0.73760430     0.07100
H1659       H  0.81834282  0.27039336  0.74350229     0.07000
C1660       C  0.65235636  0.45228847  0.79127530     0.04000
C1661       C  0.62632572  0.46244086  0.80303702    -0.12200
C1662       C  0.61382618  0.99103617  0.79599602     0.01500
C1663       C  0.62761521  0.01021451  0.77693498    -0.10700
C1664       C  0.65276765  0.99957929  0.76450368     0.04000
C1665       C  0.66608251  0.47116051  0.77190802    -0.10100
H1666       H  0.61446759  0.44677960  0.81764855     0.09600
H1667       H  0.61608536  0.03082127  0.77111907     0.07100
H1668       H  0.68412773  0.46153839  0.76219787     0.07000
C1669       C  0.62372186  0.51258047  0.71065659     0.04000
C1670       C  0.66455092  0.03731849  0.70204166    -0.12200
C1671       C  0.70213355  0.05177982  0.71370319     0.01500
C1672       C  0.69877087  0.03890096  0.73416786    -0.10700
C1673       C  0.65782897  0.51239154  0.74281698     0.04000
C1674       C  0.62060433  0.50015652  0.73107658    -0.10100
H1675       H  0.66688622  0.04809376  0.68642122     0.09600
H1676       H  0.72742561  0.04995919  0.74335465     0.07100
H1677       H  0.58914131  0.48109593  0.73792436     0.07000
O1678       O  0.58753727  0.03169164  0.81273919    -0.77600
C1679       C  0.50488130  0.08744141  0.80695216     0.83400
O1680       O  0.55210280  0.05949004  0.88163188    -0.78700
O1681       O  0.91341996  0.50365259  0.85295032    -0.80200
O1682       O  0.94088515  0.41104783  0.81179057    -0.80000
O1683       O  0.54719926  0.46034782  0.81235221    -0.78600
Zn1684     Zn  0.55130367  0.04862587  0.82940998     1.55700
O1685       O  0.91004591  0.45137825  0.81277847    -0.80000
Cd1686     Cd  0.49462728  0.44747637  0.82931039     1.59700
Cd1687     Cd  0.49940812  0.00036012  0.87139283     1.59600
O1688       O  0.99604431  0.41123566  0.85249490    -0.80000
O1689       O  0.49972482  0.00098871  0.84039916    -1.90500
Cd1690     Cd  0.95036042  0.00462861  0.82955572     1.59900
O1691       O  0.00636599  0.44785154  0.88146248    -0.80000
O1692       O  0.96740275  0.05800067  0.81187238    -0.78600
C1693       C  0.58282158  0.08903306  0.87116665     0.83900
C1694       C  0.58114180  0.99491285  0.80747843     0.83500
O1695       O  0.53832950  0.08666543  0.81245595    -0.77600
C1696       C  0.91043884  0.41771675  0.80721034     0.84400
O1697       O  0.58550594  0.08576562  0.85203267    -0.77700
C1698       C  0.00376576  0.41592895  0.87148951     0.84500
C1699       C  0.91057202  0.49589426  0.87193727     0.84800
O1700       O  0.93999717  0.49330630  0.88179660    -0.80100
O1701       O  0.79017373  0.07966116  0.52774612    -0.77600
C1702       C  0.75016223  0.17442781  0.53275337     0.83400
O1703       O  0.77922660  0.11043675  0.45782906    -0.78700
O1704       O  0.83677377  0.25748265  0.48757153    -0.80200
O1705       O  0.92101545  0.21370305  0.52774278    -0.80000
O1706       O  0.86092839  0.10660943  0.52836610    -0.78600
Zn1707     Zn  0.77829934  0.11882883  0.51051144     1.55700
O1708       O  0.89225950  0.25597065  0.52881970    -0.80000
Cd1709     Cd  0.87973731  0.16092382  0.51070317     1.59700
Cd1710     Cd  0.83175959  0.16785357  0.46896464     1.59600
O1711       O  0.91630038  0.16171398  0.48680645    -0.80000
O1712       O  0.83104398  0.16644315  0.50004195    -1.90500
Cd1713     Cd  0.83761901  0.22080257  0.51117609     1.59900
O1714       O  0.88954869  0.17306621  0.45824880    -0.80000
O1715       O  0.78497981  0.20851655  0.52828001    -0.78600
C1716       C  0.74815769  0.08031066  0.46778774     0.83900
C1717       C  0.82309440  0.07781502  0.53332030     0.83500
O1718       O  0.74256055  0.13735816  0.52709995    -0.77600
C1719       C  0.92190913  0.24798388  0.53341374     0.84400
O1720       O  0.74467255  0.08232664  0.48701631    -0.77700
C1721       C  0.91864512  0.16953745  0.46778978     0.84500
C1722       C  0.82989744  0.25307112  0.46844505     0.84800
O1723       O  0.82705919  0.22101110  0.45860236    -0.80100
C1724       C  0.67852424  0.21822371  0.54699470     0.04000
C1725       C  0.70384479  0.20608758  0.53572695    -0.12200
C1726       C  0.71762536  0.17941606  0.54394793     0.01500
C1727       C  0.70504153  0.16335736  0.56361416    -0.10700
C1728       C  0.68029167  0.17562543  0.57549430     0.04000
C1729       C  0.66698786  0.20328847  0.56714271    -0.10100
H1730       H  0.71470765  0.21910185  0.52057342     0.09600
H1731       H  0.71669429  0.14342210  0.57015405     0.07100
H1732       H  0.64889123  0.21373437  0.57630778     0.07000
C1733       C  0.70638776  0.15404917  0.62785584     0.04000
C1734       C  0.66577293  0.12502377  0.63532315    -0.12200
C1735       C  0.62871264  0.11528317  0.62434140     0.01500
C1736       C  0.63243835  0.13451378  0.60517389    -0.10700
C1737       C  0.67369467  0.16294349  0.59720800     0.04000
C1738       C  0.71037058  0.17371342  0.60904753    -0.10100
H1739       H  0.66299096  0.10946063  0.64986326     0.09600
H1740       H  0.60404353  0.12518586  0.59602632     0.07100
H1741       H  0.74214252  0.19491753  0.60291847     0.07000
C1742       C  0.53773981  0.31946538  0.54759562     0.04000
C1743       C  0.50015648  0.29357907  0.53647257    -0.12200
C1744       C  0.95976078  0.27966564  0.54479900     0.01500
C1745       C  0.95652415  0.29250242  0.56445412    -0.10700
C1746       C  0.99376716  0.31762916  0.57619337     0.04000
C1747       C  0.53463921  0.33119336  0.56771049    -0.10100
H1748       H  0.50221979  0.28280516  0.52128649     0.09600
H1749       H  0.92499152  0.28092590  0.57106589     0.07100
H1750       H  0.56336798  0.34972997  0.57674087     0.07000
C1751       C  0.98704202  0.36994758  0.62518280     0.04000
C1752       C  0.50142987  0.36594512  0.60578691    -0.12200
C1753       C  0.98822630  0.32453236  0.59790620     0.01500
C1754       C  0.96256915  0.28798823  0.60988334    -0.10700
C1755       C  0.94779761  0.29226520  0.62886506     0.04000
C1756       C  0.96032757  0.33302697  0.63642920    -0.10100
H1757       H  0.51974903  0.39417836  0.59640896     0.09600
H1758       H  0.95130493  0.25610105  0.60371847     0.07100
H1759       H  0.94788209  0.33600166  0.65102660     0.07000
C1760       C  0.81624383  0.03982142  0.54480046     0.04000
C1761       C  0.78955060  0.99940071  0.53644426    -0.12200
C1762       C  0.77806853  0.46170664  0.54744086     0.01500
C1763       C  0.79328233  0.46478600  0.56748557    -0.10700
C1764       C  0.82077641  0.00567408  0.57602219     0.04000
C1765       C  0.83268540  0.04300211  0.56438720    -0.10100
H1766       H  0.77650534  0.99740189  0.52131404     0.09600
H1767       H  0.78324759  0.43599948  0.57644379     0.07100
H1768       H  0.85286030  0.07453147  0.57101597     0.07000
C1769       C  0.87987471  0.51187362  0.62495604     0.04000
C1770       C  0.86941957  0.03800637  0.63641382    -0.12200
C1771       C  0.84086414  0.05024724  0.62903759     0.01500
C1772       C  0.82213628  0.03603918  0.60993698    -0.10700
C1773       C  0.83324158  0.51096115  0.59774846     0.04000
C1774       C  0.86157365  0.49785845  0.60549299    -0.10100
H1775       H  0.88473836  0.05017321  0.65106788     0.09600
H1776       H  0.80147978  0.04728246  0.60388221     0.07100
H1777       H  0.87157959  0.47983713  0.59598664     0.07000
O1778       O  0.74454975  0.12647955  0.64499332    -0.77600
C1779       C  0.83676376  0.08323898  0.64017989     0.83400
O1780       O  0.77318879  0.11386988  0.71408705    -0.78700
O1781       O  0.92025706  0.16891387  0.68512472    -0.80200
O1782       O  0.88106165  0.25524293  0.64518816    -0.80000
O1783       O  0.77390325  0.19755642  0.64367070    -0.78600
Zn1784     Zn  0.78273437  0.11332958  0.66187122     1.55700
O1785       O  0.92120998  0.22417573  0.64441068    -0.80000
Cd1786     Cd  0.82722387  0.21480173  0.66155643     1.59700
Cd1787     Cd  0.83148375  0.16603892  0.70346867     1.59600
O1788       O  0.82783619  0.25172138  0.68504902    -0.80000
O1789       O  0.83064125  0.16528511  0.67253389    -1.90500
Cd1790     Cd  0.88423990  0.17017875  0.66174048     1.59900
O1791       O  0.83789106  0.22468897  0.71382142    -0.80000
O1792       O  0.87124473  0.11729961  0.64496885    -0.78600
C1793       C  0.74331182  0.08275993  0.70399405     0.83900
C1794       C  0.74398099  0.15993120  0.63919288     0.83500
O1795       O  0.79993686  0.07692022  0.64529231    -0.77600
C1796       C  0.91487551  0.25490281  0.63990110     0.84400
O1797       O  0.74578656  0.07928368  0.68483530    -0.77700
C1798       C  0.83523988  0.25413709  0.70408151     0.84500
C1799       C  0.91557440  0.16194279  0.70418007     0.84800
O1800       O  0.88375297  0.15977435  0.71396947    -0.80100
O1801       O  0.75487805  0.86460338  0.47842261    -0.77600
C1802       C  0.67297545  0.92302780  0.47233182     0.83400
O1803       O  0.71706693  0.89044489  0.54735852    -0.78700
O1804       O  0.58058441  0.83836385  0.51850529    -0.80200
O1805       O  0.60567800  0.74456281  0.47687192    -0.80000
O1806       O  0.71338332  0.79329375  0.47746734    -0.78600
Zn1807     Zn  0.71849751  0.88254144  0.49481092     1.55700
O1808       O  0.57593162  0.78596557  0.47792151    -0.80000
Cd1809     Cd  0.66035046  0.78049227  0.49429951     1.59700
Cd1810     Cd  0.66546996  0.83313949  0.53618281     1.59600
O1811       O  0.66142018  0.74419172  0.51794185    -0.80000
O1812       O  0.66616002  0.83456400  0.50520787    -1.90500
Cd1813     Cd  0.61708147  0.83931038  0.49460040     1.59900
O1814       O  0.67086579  0.78085776  0.54679048    -0.80000
O1815       O  0.63525784  0.89358000  0.47704541    -0.78600
C1816       C  0.74796013  0.92074637  0.53745300     0.83900
C1817       C  0.74797797  0.82763185  0.47301859     0.83500
O1818       O  0.70617228  0.92165425  0.47785090    -0.77600
C1819       C  0.57545039  0.75178914  0.47243397     0.84400
O1820       O  0.75169550  0.91896715  0.51824745    -0.77700
C1821       C  0.66827229  0.74885324  0.53705225     0.84500
C1822       C  0.57851579  0.83044998  0.53749806     0.84800
O1823       O  0.60782401  0.82720516  0.54693197    -0.80100
C1824       C  0.79187618  0.84704770  0.37775285     0.04000
C1825       C  0.83245266  0.87436198  0.36968798    -0.12200
C1826       C  0.86994364  0.88540077  0.38077987     0.01500
C1827       C  0.86635322  0.86915950  0.40067699    -0.10700
C1828       C  0.82525522  0.84108239  0.40888600     0.04000
C1829       C  0.78830479  0.82950624  0.39708381    -0.10100
H1830       H  0.83471520  0.88816816  0.35472310     0.09600
H1831       H  0.89487728  0.87897457  0.40979391     0.07100
H1832       H  0.75665733  0.80896649  0.40349156     0.07000
C1833       C  0.81983441  0.78407621  0.45866096     0.04000
C1834       C  0.83191665  0.79995134  0.43865852    -0.12200
C1835       C  0.81906958  0.82826361  0.43058138     0.01500
C1836       C  0.79431870  0.84026698  0.44256908    -0.10700
C1837       C  0.78095064  0.82312012  0.46199073     0.04000
C1838       C  0.79425269  0.79583407  0.46997553    -0.10100
H1839       H  0.85000423  0.78968483  0.42937520     0.09600
H1840       H  0.78294043  0.86057420  0.43619933     0.07100
H1841       H  0.78285313  0.78209032  0.48496856     0.07000
C1842       C  0.51132490  0.62757438  0.38093590     0.04000
C1843       C  0.99837830  0.63135066  0.40072958    -0.12200
C1844       C  0.51126721  0.67262362  0.40870567     0.01500
C1845       C  0.53672133  0.70941000  0.39681043    -0.10700
C1846       C  0.55107060  0.70556378  0.37766018     0.04000
C1847       C  0.53796703  0.66490955  0.36978864    -0.10100
H1848       H  0.97948335  0.60292018  0.40989880     0.09600
H1849       H  0.54775089  0.74118933  0.40306090     0.07100
H1850       H  0.54971619  0.66243507  0.35491350     0.07000
C1851       C  0.95968520  0.68016979  0.45792438     0.04000
C1852       C  0.96337311  0.66692212  0.43818585    -0.12200
C1853       C  0.50455322  0.67942750  0.43026618     0.01500
C1854       C  0.54135891  0.70479926  0.44216833    -0.10700
C1855       C  0.53764901  0.71949291  0.46126264     0.04000
C1856       C  0.99705356  0.70674170  0.46907551    -0.10100
H1857       H  0.93494873  0.64810463  0.42900671     0.09600
H1858       H  0.57307037  0.71559041  0.43593618     0.07100
H1859       H  0.99465595  0.71873290  0.48390380     0.07000
C1860       C  0.67925261  0.96093831  0.46098866     0.04000
C1861       C  0.66149491  0.95726060  0.44171453    -0.12200
C1862       C  0.67296216  0.99415386  0.42987894     0.01500
C1863       C  0.70115209  0.53536350  0.43804887    -0.10700
C1864       C  0.71755060  0.53905684  0.45793869     0.04000
C1865       C  0.70660377  0.00157302  0.46901718    -0.10100
H1866       H  0.64085998  0.92554087  0.43536513     0.09600
H1867       H  0.71087042  0.56386602  0.42891835     0.07100
H1868       H  0.72051262  0.00387509  0.48395889     0.07000
C1869       C  0.61480450  0.48771030  0.38035467     0.04000
C1870       C  0.63128787  0.50035381  0.40023579    -0.12200
C1871       C  0.65977749  0.48765773  0.40822266     0.01500
C1872       C  0.67130028  0.96249786  0.39624090    -0.10700
C1873       C  0.65352147  0.94854750  0.37695254     0.04000
C1874       C  0.62600868  0.96165858  0.36908526    -0.10100
H1875       H  0.62137218  0.51877333  0.40949607     0.09600
H1876       H  0.69179461  0.95128318  0.40253505     0.07100
H1877       H  0.61184994  0.94992700  0.35418705     0.07000
O1878       O  0.69501216  0.92244617  0.36053536    -0.77600
C1879       C  0.75394708  0.84068001  0.36639752     0.83400
O1880       O  0.72099202  0.88461003  0.29157901    -0.78700
O1881       O  0.66865163  0.74798366  0.32000527    -0.80200
O1882       O  0.57567186  0.77329605  0.36187445    -0.80000
O1883       O  0.62376572  0.88098115  0.36130372    -0.78600
Zn1884     Zn  0.71306014  0.88611216  0.34412108     1.55700
O1885       O  0.61735889  0.74383964  0.36093126    -0.80000
Cd1886     Cd  0.61117544  0.82791699  0.34442997     1.59700
Cd1887     Cd  0.66369205  0.83313093  0.30261211     1.59600
O1888       O  0.57466956  0.82869125  0.32079951    -0.80000
O1889       O  0.66525057  0.83377510  0.33357653    -1.90500
Cd1890     Cd  0.67034225  0.78473740  0.34401300     1.59900
O1891       O  0.61162435  0.83874687  0.29201377    -0.80000
O1892       O  0.72488933  0.80295652  0.36138808    -0.78600
C1893       C  0.75129445  0.91547772  0.30150021     0.83900
C1894       C  0.65804503  0.91555661  0.36587185     0.83500
O1895       O  0.75219638  0.87384522  0.36114200    -0.77600
C1896       C  0.58316815  0.74327827  0.36641360     0.84400
O1897       O  0.74951495  0.91933480  0.32070159    -0.77700
C1898       C  0.57949629  0.83584841  0.30171511     0.84500
C1899       C  0.66057774  0.74597903  0.30102703     0.84800
O1900       O  0.65746833  0.77545235  0.29166866    -0.80100
C1901       C  0.87025199  0.98291199  0.29402013     0.04000
C1902       C  0.82989290  0.95692559  0.30253724    -0.12200
C1903       C  0.79226491  0.94533797  0.29149191     0.01500
C1904       C  0.79534536  0.95985048  0.27131332    -0.10700
C1905       C  0.83616799  0.98651506  0.26262890     0.04000
C1906       C  0.87349914  0.49848189  0.27426322    -0.10100
H1907       H  0.82790868  0.94447222  0.31780234     0.09600
H1908       H  0.76656475  0.94982497  0.26236289     0.07100
H1909       H  0.90499759  0.51818265  0.26755125     0.07000
C1910       C  0.84237660  0.54599896  0.21393304     0.04000
C1911       C  0.86835594  0.53549583  0.20234458    -0.12200
C1912       C  0.88065941  0.00690259  0.20958687     0.01500
C1913       C  0.86651173  0.98796107  0.22866330    -0.10700
C1914       C  0.84140450  0.99901667  0.24092620     0.04000
C1915       C  0.82834310  0.52746002  0.23332273    -0.10100
H1916       H  0.88041358  0.55094818  0.18770965     0.09600
H1917       H  0.87783415  0.96730956  0.23465068     0.07100
H1918       H  0.81035231  0.53739193  0.24289061     0.07000
O1919       O  0.95692864  0.91104991  0.19336414    -0.77600
C1920       C  0.91362542  0.00302551  0.19832388     0.83400
O1921       O  0.94342813  0.93890560  0.12419109    -0.78700
O1922       O  0.99850008  0.58645815  0.15304304    -0.80200
O1923       O  0.58538856  0.54779118  0.19314832    -0.80000
O1924       O  0.52792491  0.94052316  0.19458928    -0.78600
Zn1925     Zn  0.94381435  0.94928247  0.17647367     1.55700
O1926       O  0.55454209  0.58814605  0.19385374    -0.80000
Cd1927     Cd  0.54502786  0.99392403  0.17666224     1.59700
Cd1928     Cd  0.99607226  0.99776598  0.13456827     1.59600
O1929       O  0.58190641  0.49461568  0.15313515    -0.80000
O1930       O  0.99553662  0.99727615  0.16562467    -1.90500
Cd1931     Cd  0.00033177  0.55088474  0.17654631     1.59900
O1932       O  0.55504053  0.50418177  0.12419384    -0.80000
O1933       O  0.94755102  0.53764900  0.19349495    -0.78600
C1934       C  0.91260080  0.90919476  0.13452032     0.83900
C1935       C  0.99039101  0.91056697  0.19915738     0.83500
O1936       O  0.90739331  0.96624793  0.19312610    -0.77600
C1937       C  0.58515929  0.58169692  0.19844629     0.84400
O1938       O  0.90968645  0.91216015  0.15367350    -0.77700
C1939       C  0.58451356  0.50176882  0.13407065     0.84500
C1940       C  0.99167418  0.58200835  0.13395971     0.84800
O1941       O  0.98970856  0.55029696  0.12407854    -0.80100
C1942       C  0.64924399  0.70509929  0.29087120     0.04000
C1943       C  0.62321947  0.66755602  0.30199068    -0.12200
C1944       C  0.60921824  0.62708390  0.29369605     0.01500
C1945       C  0.62194357  0.62367938  0.27404758    -0.10700
C1946       C  0.64719094  0.66087090  0.26229865     0.04000
C1947       C  0.66093937  0.70186290  0.27076278    -0.10100
H1948       H  0.61253446  0.66971884  0.31717791     0.09600
H1949       H  0.61033370  0.59206706  0.26747719     0.07100
H1950       H  0.67967874  0.73057387  0.26174355     0.07000
C1951       C  0.70004413  0.65292008  0.21381498     0.04000
C1952       C  0.69582180  0.66774150  0.23305614    -0.12200
C1953       C  0.65438737  0.65513701  0.24064645     0.01500
C1954       C  0.61803774  0.62967836  0.22850182    -0.10700
C1955       C  0.62248152  0.61448638  0.20964258     0.04000
C1956       C  0.66330371  0.62637523  0.20240765    -0.10100
H1957       H  0.72387223  0.68595235  0.24255593     0.09600
H1958       H  0.58612080  0.61885264  0.23446874     0.07100
H1959       H  0.66645417  0.61367294  0.18791637     0.07000
C1960       C  0.54903102  0.84625685  0.29178667     0.04000
C1961       C  0.53724288  0.87186782  0.30303736    -0.12200
C1962       C  0.01069914  0.88579080  0.29483339     0.01500
C1963       C  0.99448330  0.87314559  0.27518294    -0.10700
C1964       C  0.00641087  0.84808873  0.26331781     0.04000
C1965       C  0.53390355  0.83458449  0.27167095    -0.10100
H1966       H  0.55036161  0.88276027  0.31817708     0.09600
H1967       H  0.97459758  0.88486931  0.26866631     0.07100
H1968       H  0.54406525  0.81620876  0.26253009     0.07000
C1969       C  0.99342749  0.84112871  0.24163372     0.04000
C1970       C  0.96525958  0.79964310  0.23378867    -0.12200
C1971       C  0.94617215  0.79542118  0.21454449     0.01500
C1972       C  0.95586297  0.83226605  0.20333622    -0.10700
C1973       C  0.98462566  0.87315001  0.21069067     0.04000
C1974       C  0.50400103  0.87758304  0.22962847    -0.10100
H1975       H  0.95603332  0.77142994  0.24307339     0.09600
H1976       H  0.94036700  0.82909873  0.18873994     0.07100
H1977       H  0.52497775  0.90952453  0.23567090     0.07000
O1978       O  0.91050430  0.95727327  0.31096653    -0.77600
C1979       C  0.00566955  0.91822894  0.30610784     0.83400
O1980       O  0.94120312  0.94706093  0.38092627    -0.78700
O1981       O  0.58838570  0.50489177  0.35147253    -0.80200
O1982       O  0.54329883  0.58805114  0.31066568    -0.80000
O1983       O  0.93654825  0.52795712  0.31070041    -0.78600
Zn1984     Zn  0.94980327  0.94593039  0.32831281     1.55700
O1985       O  0.58645008  0.56026509  0.31018008    -0.80000
Cd1986     Cd  0.99115285  0.54716554  0.32810988     1.59700
Cd1987     Cd  0.99861205  0.99952822  0.36988082     1.59600
O1988       O  0.49253065  0.58411475  0.35201283    -0.80000
O1989       O  0.99716479  0.99878580  0.33881802    -1.90500
Cd1990     Cd  0.55165522  0.00561225  0.32783872     1.59900
O1991       O  0.50388554  0.55731345  0.38056507    -0.80000
O1992       O  0.53966795  0.95310143  0.31063878    -0.78600
C1993       C  0.91114604  0.91595020  0.37094839     0.83900
C1994       C  0.90819103  0.99003025  0.30554859     0.83500
O1995       O  0.96859971  0.91043989  0.31177873    -0.77600
C1996       C  0.57783969  0.58932328  0.30520101     0.84400
O1997       O  0.91323858  0.91233347  0.35173855    -0.77700
C1998       C  0.50043849  0.58647110  0.37102902     0.84500
C1999       C  0.58386522  0.49785292  0.37058237     0.84800
O2000       O  0.55171763  0.49482841  0.38038163    -0.80100
O2001       O  0.88919738  0.63623234  0.02578691    -0.77600
C2002       C  0.74952392  0.57716757  0.03161465     0.83400
O2003       O  0.82482390  0.60772543  0.95640996    -0.78700
O2004       O  0.74167782  0.66185074  0.98507122    -0.80200
O2005       O  0.85983225  0.75478892  0.02686774    -0.80000
O2006       O  0.91907211  0.70750259  0.02627335    -0.78600
Zn2007     Zn  0.83540729  0.61778813  0.00895425     1.55700
O2008       O  0.78871667  0.71241366  0.02621266    -0.80000
Cd2009     Cd  0.87886606  0.71970019  0.00907286     1.59700
Cd2010     Cd  0.83163705  0.66639217  0.96710230     1.59600
O2011       O  0.91654025  0.75623185  0.98557983    -0.80000
O2012       O  0.83083751  0.66530794  0.99815909    -1.90500
Cd2013     Cd  0.77685680  0.66009141  0.00885942     1.59900
O2014       O  0.89083253  0.71864160  0.95679479    -0.80000
O2015       O  0.74065730  0.60589076  0.02641785    -0.78600
C2016       C  0.82604611  0.57802799  0.96662515     0.83900
C2017       C  0.91905971  0.67330846  0.03122227     0.83500
O2018       O  0.78427426  0.57885964  0.02617858    -0.77600
C2019       C  0.82230134  0.74660043  0.03183232     0.84400
O2020       O  0.83239670  0.58095506  0.98578533    -0.77700
C2021       C  0.91984365  0.75103516  0.96661730     0.84500
C2022       C  0.74758533  0.67052939  0.96614842     0.84800
O2023       O  0.78001499  0.67367748  0.95653118    -0.80100
C2024       C  0.77783614  0.81649734  0.04865145     0.04000
C2025       C  0.78837608  0.79059026  0.03682650    -0.12200
C2026       C  0.81655078  0.77764388  0.04391131     0.01500
C2027       C  0.83512184  0.79092049  0.06310512    -0.10700
C2028       C  0.82404199  0.81564706  0.07562993     0.04000
C2029       C  0.79530089  0.82868308  0.06835928    -0.10100
H2030       H  0.77378316  0.77953670  0.02194508     0.09600
H2031       H  0.85616408  0.77984221  0.06882239     0.07100
H2032       H  0.78618815  0.84725565  0.07798905     0.07000
C2033       C  0.88116507  0.86756746  0.12522412     0.04000
C2034       C  0.86764219  0.83038463  0.13713274    -0.12200
C2035       C  0.84155993  0.78932925  0.12905737     0.01500
C2036       C  0.82696682  0.78537122  0.10901809    -0.10700
C2037       C  0.83840273  0.82206511  0.09705766     0.04000
C2038       C  0.86618731  0.86333854  0.10508078    -0.10100
H2039       H  0.87993722  0.83324666  0.15248527     0.09600
H2040       H  0.80697508  0.75360101  0.10258379     0.07100
H2041       H  0.87654931  0.89159367  0.09566409     0.07000
C2042       C  0.67970326  0.96202437  0.04799411     0.04000
C2043       C  0.70606115  0.99881516  0.03639682    -0.12200
C2044       C  0.71854840  0.53989654  0.04357049     0.01500
C2045       C  0.70421091  0.54473979  0.06259177    -0.10700
C2046       C  0.67897167  0.50859954  0.07490635     0.04000
C2047       C  0.66653393  0.96692872  0.06754607    -0.10100
H2048       H  0.71782097  0.99561006  0.02165460     0.09600
H2049       H  0.71485107  0.57679079  0.06836980     0.07100
H2050       H  0.64774409  0.93900525  0.07704097     0.07000
C2051       C  0.62603944  0.51244176  0.12452920     0.04000
C2052       C  0.63052874  0.00227655  0.10427638    -0.12200
C2053       C  0.67195898  0.51610092  0.09635422     0.01500
C2054       C  0.70842299  0.54099066  0.10854205    -0.10700
C2055       C  0.70414898  0.55102849  0.12864509     0.04000
C2056       C  0.66305615  0.53588428  0.13655762    -0.10100
H2057       H  0.60241833  0.98451965  0.09475544     0.09600
H2058       H  0.74027615  0.55289033  0.10224992     0.07100
H2059       H  0.66004103  0.54492574  0.15197201     0.07000
C2060       C  0.53347794  0.71644357  0.04773382     0.04000
C2061       C  0.99701845  0.70597821  0.03592550    -0.12200
C2062       C  0.95575493  0.67794410  0.04303874     0.01500
C2063       C  0.95034412  0.65918219  0.06219987    -0.10700
C2064       C  0.98615599  0.66994582  0.07469305     0.04000
C2065       C  0.52805112  0.69875126  0.06741720    -0.10100
H2066       H  0.00064265  0.72083033  0.02111048     0.09600
H2067       H  0.91814310  0.63833483  0.06794481     0.07100
H2068       H  0.55573502  0.70783533  0.07705278     0.07000
C2069       C  0.98110902  0.61285750  0.12435657     0.04000
C2070       C  0.95767641  0.62649663  0.13628921    -0.12200
C2071       C  0.94284015  0.65262734  0.12831721     0.01500
C2072       C  0.95310133  0.66696709  0.10820979    -0.10700
C2073       C  0.97813805  0.65540717  0.09614203     0.04000
C2074       C  0.49162780  0.62763203  0.10415515    -0.10100
H2075       H  0.94845292  0.61439689  0.15168866     0.09600
H2076       H  0.94138382  0.68699625  0.10185015     0.07100
H2077       H  0.50946601  0.61727932  0.09472830     0.07000
O2078       O  0.77024435  0.69547923  0.19980281    -0.77600
C2079       C  0.91282148  0.75431505  0.20591619     0.83400
O2080       O  0.83329653  0.71971110  0.13195514    -0.78700
O2081       O  0.91895351  0.66515287  0.15990924    -0.80200
O2082       O  0.79867848  0.57253299  0.20050274    -0.80000
O2083       O  0.74191544  0.62438934  0.20223126    -0.78600
Zn2084     Zn  0.82582153  0.71379696  0.18402542     1.55700
O2085       O  0.86986676  0.61596552  0.20163149    -0.80000
Cd2086     Cd  0.78007767  0.61045748  0.18435838     1.59700
Cd2087     Cd  0.82961702  0.66424785  0.14335670     1.59600
O2088       O  0.74043240  0.57557391  0.16025307    -0.80000
O2089       O  0.82987343  0.66502424  0.17404531    -1.90500
Cd2090     Cd  0.88411600  0.66911310  0.18425565     1.59900
O2091       O  0.77376738  0.61221533  0.13221330    -0.80000
O2092       O  0.92164120  0.72531684  0.20094721    -0.78600
C2093       C  0.83381354  0.75128976  0.14104406     0.83900
C2094       C  0.74062055  0.65857807  0.20569961     0.83500
O2095       O  0.87721478  0.75165918  0.20120626    -0.77600
C2096       C  0.83606088  0.58043395  0.20573167     0.84400
O2097       O  0.83029746  0.75203377  0.16035124    -0.77700
C2098       C  0.74188390  0.58077131  0.14098275     0.84500
C2099       C  0.91325285  0.66073651  0.14066758     0.84800
O2100       O  0.88138006  0.66038050  0.13199507    -0.80100
O2101       O  0.71014318  0.91935993  0.97918555    -0.77600
C2102       C  0.57608027  0.82484752  0.97396101     0.83400
O2103       O  0.66999001  0.89054160  0.04892996    -0.78700
O2104       O  0.57878524  0.74193130  0.01947255    -0.80200
O2105       O  0.70697093  0.78666423  0.97908243    -0.80000
O2106       O  0.75415936  0.89278624  0.97905683    -0.78600
Zn2107     Zn  0.65929809  0.88041194  0.99643968     1.55700
O2108       O  0.63589971  0.74416492  0.97815837    -0.80000
Cd2109     Cd  0.71836931  0.83864555  0.99656332     1.59700
Cd2110     Cd  0.66349986  0.83194229  0.03822700     1.59600
O2111       O  0.75381397  0.83719700  0.02029827    -0.80000
O2112       O  0.66424183  0.83309290  0.00718223    -1.90500
Cd2113     Cd  0.61651782  0.77875487  0.99606269     1.59900
O2114       O  0.71537172  0.82490781  0.04882691    -0.80000
O2115       O  0.57635609  0.79074849  0.97877063    -0.78600
C2116       C  0.66866639  0.92019483  0.03871072     0.83900
C2117       C  0.74498618  0.92123773  0.97379332     0.83500
O2118       O  0.60555249  0.86191536  0.97961963    -0.77600
C2119       C  0.67352577  0.75256113  0.97327688     0.84400
O2120       O  0.66230925  0.91724138  0.01955810    -0.77700
C2121       C  0.74794717  0.82837772  0.03920560     0.84500
C2122       C  0.57541188  0.74699905  0.03844534     0.84800
O2123       O  0.60430843  0.77937862  0.04832999    -0.80100
C2124       C  0.61448472  0.63081577  0.88020314     0.04000
C2125       C  0.62815051  0.66769658  0.86803295    -0.12200
C2126       C  0.65462027  0.70891119  0.87582662     0.01500
C2127       C  0.66944166  0.71333430  0.89585350    -0.10700
C2128       C  0.65784184  0.67692820  0.90805898     0.04000
C2129       C  0.62970715  0.63550123  0.90030901    -0.10100
H2130       H  0.61565054  0.66452702  0.85270453     0.09600
H2131       H  0.68964851  0.74524576  0.90210073     0.07100
H2132       H  0.61925406  0.60748687  0.90991058     0.07000
C2133       C  0.71793864  0.68258490  0.95662382     0.04000
C2134       C  0.70742356  0.70858613  0.96837353    -0.12200
C2135       C  0.67953309  0.72176060  0.96115289     0.01500
C2136       C  0.66127872  0.70868294  0.94188371    -0.10700
C2137       C  0.67229492  0.68376449  0.92946576     0.04000
C2138       C  0.70074111  0.67049866  0.93687432    -0.10100
H2139       H  0.72177474  0.71949210  0.98331009     0.09600
H2140       H  0.64039908  0.71987638  0.93607324     0.07100
H2141       H  0.70978642  0.65175681  0.92732706     0.07000
C2142       C  0.86880335  0.98476463  0.88129885     0.04000
C2143       C  0.83204261  0.96116264  0.86910676    -0.12200
C2144       C  0.79077219  0.94627719  0.87672985     0.01500
C2145       C  0.78608930  0.95656627  0.89674037    -0.10700
C2146       C  0.82233474  0.98163156  0.90905270     0.04000
C2147       C  0.86389699  0.49525427  0.90139397    -0.10100
H2148       H  0.83540931  0.95199197  0.85377217     0.09600
H2149       H  0.75411436  0.94480676  0.90285084     0.07100
H2150       H  0.89181652  0.51320984  0.91100513     0.07000
C2151       C  0.81479406  0.53616167  0.95732560     0.04000
C2152       C  0.78837587  0.99946384  0.96894743    -0.12200
C2153       C  0.77572555  0.95837910  0.96178384     0.01500
C2154       C  0.78981270  0.95334518  0.94275340    -0.10700
C2155       C  0.81504910  0.98936584  0.93040906     0.04000
C2156       C  0.82774426  0.53110462  0.93773920    -0.10100
H2157       H  0.77678590  0.50274932  0.98371898     0.09600
H2158       H  0.77909672  0.92123970  0.93702585     0.07100
H2159       H  0.84663458  0.55896799  0.92822657     0.07000
C2160       C  0.01453644  0.88502432  0.88082363     0.04000
C2161       C  0.53779844  0.87144647  0.86869977    -0.12200
C2162       C  0.55249894  0.84501969  0.87646912     0.01500
C2163       C  0.54225049  0.83038253  0.89655513    -0.10700
C2164       C  0.01731481  0.84186428  0.90875416     0.04000
C2165       C  0.00402029  0.86990962  0.90095004    -0.10100
H2166       H  0.54694809  0.88378513  0.85333033     0.09600
H2167       H  0.55389822  0.81020009  0.90279742     0.07100
H2168       H  0.98627911  0.88019413  0.91048849     0.07000
C2169       C  0.96180400  0.78144827  0.95728723     0.04000
C2170       C  0.96732360  0.79862833  0.93748271    -0.12200
C2171       C  0.50926558  0.82719580  0.93017214     0.01500
C2172       C  0.54502676  0.83819176  0.94272116    -0.10700
C2173       C  0.53950060  0.82006579  0.96203815     0.04000
C2174       C  0.99822449  0.79229058  0.96919699    -0.10100
H2175       H  0.93967574  0.78940915  0.92780270     0.09600
H2176       H  0.57725368  0.85885988  0.93696019     0.07100
H2177       H  0.99458062  0.77786533  0.98412330     0.07000
O2178       O  0.72597235  0.80332729  0.80483725    -0.77600
C2179       C  0.66214305  0.74669047  0.86368441     0.83400
O2180       O  0.57409047  0.77233179  0.80381516    -0.78700
O2181       O  0.61383074  0.83713140  0.87267361    -0.80200
O2182       O  0.75497253  0.92223731  0.84492327    -0.80000
O2183       O  0.75367190  0.87438248  0.80251356    -0.78600
Zn2184     Zn  0.67019206  0.78428216  0.82065570     1.55700
O2185       O  0.72122358  0.88515691  0.87279336    -0.80000
Cd2186     Cd  0.71538453  0.88785808  0.82060220     1.59700
Cd2187     Cd  0.61144250  0.82877902  0.82039519     1.59600
O2188       O  0.69637549  0.92601593  0.80478027    -0.80000
O2189       O  0.66571131  0.83289867  0.83066257    -1.90500
Cd2190     Cd  0.66562235  0.83337155  0.86134666     1.59900
O2191       O  0.62536579  0.88190172  0.80298420    -0.80000
O2192       O  0.66202206  0.77801906  0.87268197    -0.78600
C2193       C  0.58295764  0.74333827  0.79888446     0.83900
C2194       C  0.75535826  0.84040833  0.79898114     0.83500
O2195       O  0.66604589  0.74599278  0.84438675    -0.77600
C2196       C  0.75325506  0.91672496  0.86418641     0.84400
O2197       O  0.61869750  0.74616623  0.80350621    -0.77700
C2198       C  0.65902437  0.91784485  0.79927920     0.84500
C2199       C  0.58205818  0.83698650  0.86401704     0.84800
O2200       O  0.57645555  0.83277695  0.84475704    -0.80100
C2201       C  0.94607728  0.65139832  0.71394807     0.04000
C2202       C  0.96016510  0.62813895  0.70215891    -0.12200
C2203       C  0.98553535  0.61273518  0.71047797     0.01500
C2204       C  0.49868018  0.62238992  0.73077337    -0.10700
C2205       C  0.48665923  0.64732293  0.74267923     0.04000
C2206       C  0.95968032  0.66132694  0.73431224    -0.10100
H2207       H  0.94886895  0.61937588  0.68661763     0.09600
H2208       H  0.51820395  0.61034244  0.73739389     0.07100
H2209       H  0.94896587  0.67905749  0.74359950     0.07000
C2210       C  0.54938693  0.70193050  0.79059341     0.04000
C2211       C  0.54003656  0.66551747  0.80206347    -0.12200
C2212       C  0.51052881  0.62445197  0.79520857     0.01500
C2213       C  0.99011515  0.61925890  0.77651955    -0.10700
C2214       C  0.50038760  0.65516025  0.76422591     0.04000
C2215       C  0.52927543  0.69696237  0.77156152    -0.10100
H2216       H  0.55622170  0.66915604  0.81650410     0.09600
H2217       H  0.96860583  0.58710168  0.77085472     0.07100
H2218       H  0.53819325  0.72479089  0.76203497     0.07000
O2219       O  0.52972040  0.93978495  0.63965293    -0.77600
C2220       C  0.58778118  0.58204524  0.63319500     0.83400
O2221       O  0.55398430  0.50417628  0.70765233    -0.78700
O2222       O  0.99883670  0.58882469  0.67905033    -0.80200
O2223       O  0.90651339  0.96822541  0.63865369    -0.80000
O2224       O  0.95877844  0.91183315  0.63696078    -0.78600
Zn2225     Zn  0.54784793  0.49536739  0.65552513     1.55700
O2226       O  0.94973543  0.53938790  0.63743387    -0.80000
Cd2227     Cd  0.94468700  0.94984760  0.65488085     1.59700
Cd2228     Cd  0.49825815  0.49970846  0.69599233     1.59600
O2229       O  0.91008734  0.91037123  0.67907459    -0.80000
O2230       O  0.49904306  0.49958775  0.66527048    -1.90500
Cd2231     Cd  0.00282798  0.55362834  0.65485196     1.59900
O2232       O  0.94658726  0.94358440  0.70718127    -0.80000
O2233       O  0.55865796  0.59077627  0.63796808    -0.78600
C2234       C  0.58541012  0.50422937  0.69866861     0.83900
C2235       C  0.49288585  0.91041120  0.63354796     0.83500
O2236       O  0.58548050  0.54672298  0.63825652    -0.77600
C2237       C  0.91437667  0.00558513  0.63331784     0.84400
O2238       O  0.58590746  0.49997465  0.67938443    -0.77700
C2239       C  0.91522062  0.91168169  0.69835684     0.84500
C2240       C  0.99401317  0.58315092  0.69828214     0.84800
O2241       O  0.99359143  0.55131299  0.70706592    -0.80100
C2242       C  0.79626885  0.84662073  0.79100129     0.04000
C2243       C  0.83257776  0.87301499  0.80267759    -0.12200
C2244       C  0.87365052  0.88546880  0.79564564     0.01500
C2245       C  0.87891038  0.87111129  0.77672056    -0.10700
C2246       C  0.84303582  0.84566589  0.76434881     0.04000
C2247       C  0.80126040  0.83246012  0.77172094    -0.10100
H2248       H  0.82888762  0.88511850  0.81723835     0.09600
H2249       H  0.91105246  0.88235629  0.77095529     0.07100
H2250       H  0.77351291  0.81421974  0.76204500     0.07000
C2251       C  0.84592384  0.79535668  0.71387134     0.04000
C2252       C  0.86947055  0.83277711  0.70215025    -0.12200
C2253       C  0.88547067  0.87363321  0.71056919     0.01500
C2254       C  0.87603481  0.87711992  0.73091241    -0.10700
C2255       C  0.85077904  0.84004384  0.74275091     0.04000
C2256       C  0.83623350  0.79899162  0.73426444    -0.14900
H2257       H  0.87802438  0.83017658  0.68658429     0.09600
H2258       H  0.88847256  0.90873820  0.73761360     0.07100
H2259       H  0.81830535  0.77043383  0.74349636     0.07000
C2260       C  0.65240579  0.95232003  0.79128486     0.04000
C2261       C  0.62636257  0.96246629  0.80304009    -0.12200
C2262       C  0.61377334  0.49099850  0.79599353     0.01500
C2263       C  0.62753313  0.51015977  0.77692814    -0.10700
C2264       C  0.65267020  0.49951819  0.76449071     0.04000
C2265       C  0.66616451  0.97121216  0.77192390    -0.10100
H2266       H  0.61448380  0.94679214  0.81764742     0.09600
H2267       H  0.61599423  0.53076076  0.77111514     0.07100
H2268       H  0.68421932  0.96159343  0.76221816     0.07000
C2269       C  0.62383552  0.01258642  0.71065880     0.04000
C2270       C  0.66443682  0.53733389  0.70204220    -0.12200
C2271       C  0.70201963  0.55177860  0.71370148     0.01500
C2272       C  0.69866041  0.53886737  0.73415979    -0.10700
C2273       C  0.65793693  0.01244321  0.74282786     0.04000
C2274       C  0.62071555  0.00019476  0.73108375    -0.10100
H2275       H  0.66677187  0.54813321  0.68642649     0.09600
H2276       H  0.72731657  0.54991518  0.74334455     0.07100
H2277       H  0.58925174  0.98114711  0.73793237     0.07000
O2278       O  0.58749198  0.53166231  0.81273112    -0.77600
C2279       C  0.50486194  0.58744314  0.80694336     0.83400
O2280       O  0.55209448  0.55948595  0.88162152    -0.78700
O2281       O  0.91343985  0.00366321  0.85295795    -0.80200
O2282       O  0.94092015  0.91106551  0.81179273    -0.80000
O2283       O  0.54723707  0.96037946  0.81234315    -0.78600
Zn2284     Zn  0.55127414  0.54861337  0.82940005     1.55700
O2285       O  0.91006598  0.95138152  0.81279128    -0.80000
Cd2286     Cd  0.49466797  0.94749990  0.82930750     1.59700
Cd2287     Cd  0.49939250  0.50035853  0.87138687     1.59600
O2288       O  0.99609719  0.91126294  0.85248969    -0.80000
O2289       O  0.49969826  0.50097848  0.84039321    -1.90500
Cd2290     Cd  0.95033913  0.50462393  0.82954631     1.59900
O2291       O  0.00638228  0.94785134  0.88146349    -0.80000
O2292       O  0.96738342  0.55800385  0.81186513    -0.78600
C2293       C  0.58281235  0.58902466  0.87115430     0.83900
C2294       C  0.58109821  0.49487932  0.80747991     0.83500
O2295       O  0.53830833  0.58666102  0.81244491    -0.77600
C2296       C  0.91046526  0.91772583  0.80721920     0.84400
O2297       O  0.58548893  0.58575472  0.85201998    -0.77700
C2298       C  0.00379924  0.91594098  0.87148613     0.84500
C2299       C  0.91058698  0.99589631  0.87194403     0.84800
O2300       O  0.94000825  0.99329989  0.88180251    -0.80100
O2301       O  0.79014721  0.57965967  0.52775515    -0.77600
C2302       C  0.75015486  0.67443710  0.53276540     0.83400
O2303       O  0.77923318  0.61042838  0.45784215    -0.78700
O2304       O  0.83675613  0.75747318  0.48757815    -0.80200
O2305       O  0.92100338  0.71368326  0.52775786    -0.80000
O2306       O  0.86089928  0.60658499  0.52837128    -0.78600
Zn2307     Zn  0.77828516  0.61883223  0.51052083     1.55700
O2308       O  0.89226622  0.75596945  0.52881981    -0.80000
Cd2309     Cd  0.87972731  0.66091016  0.51071429     1.59700
Cd2310     Cd  0.83176341  0.66785192  0.46897460     1.59600
O2311       O  0.91630290  0.66170641  0.48681988    -0.80000
O2312       O  0.83103884  0.66643981  0.50005183    -1.90500
Cd2313     Cd  0.83761338  0.72079994  0.51118457     1.59900
O2314       O  0.88955693  0.67306420  0.45826188    -0.80000
O2315       O  0.78497976  0.70852181  0.52829505    -0.78600
C2316       C  0.74815889  0.58030392  0.46779930     0.83900
C2317       C  0.82306163  0.57779959  0.53332588     0.83500
O2318       O  0.74254525  0.63736666  0.52710826    -0.77600
C2319       C  0.92190680  0.74797339  0.53342048     0.84400
O2320       O  0.74466230  0.58232358  0.48702679    -0.77700
C2321       C  0.91865186  0.66953317  0.46780328     0.84500
C2322       C  0.82988660  0.75306571  0.46845094     0.84800
O2323       O  0.82705818  0.72100917  0.45860832    -0.80100
C2324       C  0.67851705  0.71824496  0.54699469     0.04000
C2325       C  0.70385558  0.70612039  0.53573428    -0.12200
C2326       C  0.71761495  0.67943191  0.54395598     0.01500
C2327       C  0.70499225  0.66334829  0.56361661    -0.10700
C2328       C  0.68022390  0.67560717  0.57548946     0.04000
C2329       C  0.66694118  0.70328410  0.56713604    -0.10100
H2330       H  0.71474374  0.71915234  0.52058510     0.09600
H2331       H  0.71662946  0.64340192  0.57015911     0.07100
H2332       H  0.64883188  0.71372328  0.57629572     0.07000
C2333       C  0.70627613  0.65405983  0.62786498     0.04000
C2334       C  0.66565569  0.62504853  0.63533182    -0.12200
C2335       C  0.62860124  0.61529868  0.62434167     0.01500
C2336       C  0.63234114  0.63450725  0.60516629    -0.10700
C2337       C  0.67360497  0.66292467  0.59720296     0.04000
C2338       C  0.71027133  0.67370237  0.60905023    -0.10100
H2339       H  0.66286544  0.60949779  0.64987654     0.09600
H2340       H  0.60395383  0.62517289  0.59601273     0.07100
H2341       H  0.74204887  0.69489743  0.60292291     0.07000
C2342       C  0.53773714  0.81947264  0.54759993     0.04000
C2343       C  0.50015429  0.79359006  0.53647517    -0.12200
C2344       C  0.95975753  0.77965388  0.54480574     0.01500
C2345       C  0.95651809  0.79246246  0.56446604    -0.10700
C2346       C  0.99375902  0.81758375  0.57620699     0.04000
C2347       C  0.53463317  0.83117301  0.56772006    -0.10100
H2348       H  0.50221870  0.78283374  0.52128493     0.09600
H2349       H  0.92498326  0.78087142  0.57107895     0.07100
H2350       H  0.56336117  0.84970765  0.57675100     0.07000
C2351       C  0.98707519  0.86990861  0.62520140     0.04000
C2352       C  0.50146738  0.86589656  0.60580853    -0.12200
C2353       C  0.98821485  0.82447883  0.59792085     0.01500
C2354       C  0.96250849  0.78793605  0.60989033    -0.10700
C2355       C  0.94773264  0.79222318  0.62886909     0.04000
C2356       C  0.96030825  0.83299083  0.63643893    -0.10100
H2357       H  0.51982359  0.89413024  0.59643652     0.09600
H2358       H  0.95121388  0.75604614  0.60372179     0.07100
H2359       H  0.94786020  0.83597484  0.65103427     0.07000
C2360       C  0.81619893  0.53980187  0.54480427     0.04000
C2361       C  0.78953450  0.49938368  0.53643790    -0.12200
C2362       C  0.77810335  0.96172713  0.54744583     0.01500
C2363       C  0.79336247  0.96481163  0.56748189    -0.10700
C2364       C  0.82066680  0.50564553  0.57603458     0.04000
C2365       C  0.83259210  0.54297695  0.56440087    -0.10100
H2366       H  0.77652262  0.49738991  0.52130095     0.09600
H2367       H  0.78333984  0.93602766  0.57644054     0.07100
H2368       H  0.85274605  0.57450408  0.57103595     0.07000
C2369       C  0.88001689  0.01191209  0.62493956     0.04000
C2370       C  0.86927728  0.53796955  0.63642900    -0.12200
C2371       C  0.84072573  0.55021385  0.62905028     0.01500
C2372       C  0.82200105  0.53600458  0.60994889    -0.10700
C2373       C  0.83337598  0.01099918  0.59773380     0.04000
C2374       C  0.86171321  0.99789839  0.60547574    -0.10100
H2375       H  0.88459641  0.55013835  0.65108271     0.09600
H2376       H  0.80135027  0.54725240  0.60389066     0.07100
H2377       H  0.87171489  0.97987566  0.59596886     0.07000
O2378       O  0.74443118  0.62648285  0.64500174    -0.77600
C2379       C  0.83663178  0.58321299  0.64018995     0.83400
O2380       O  0.77307160  0.61387235  0.71409028    -0.78700
O2381       O  0.92013642  0.66889229  0.68513800    -0.80200
O2382       O  0.88097377  0.75522637  0.64517912    -0.80000
O2383       O  0.77379357  0.69756140  0.64367983    -0.78600
Zn2384     Zn  0.78261812  0.61332943  0.66187481     1.55700
O2385       O  0.92110429  0.72413829  0.64442136    -0.80000
Cd2386     Cd  0.82713056  0.71480584  0.66155534     1.59700
Cd2387     Cd  0.83137402  0.66603518  0.70347426     1.59600
O2388       O  0.82778561  0.75175081  0.68504689    -0.80000
O2389       O  0.83052933  0.66528067  0.67253904    -1.90500
Cd2390     Cd  0.88412013  0.67015157  0.66175192     1.59900
O2391       O  0.83780643  0.72469646  0.71382107    -0.80000
O2392       O  0.87111622  0.61726502  0.64498411    -0.78600
C2393       C  0.74319736  0.58276297  0.70399558     0.83900
C2394       C  0.74386526  0.65993712  0.63920379     0.83500
O2395       O  0.79980680  0.57690884  0.64529555    -0.77600
C2396       C  0.91478547  0.75487051  0.63990164     0.84400
O2397       O  0.74567479  0.57928759  0.68483735    -0.77700
C2398       C  0.83518726  0.75416092  0.70407959     0.84500
C2399       C  0.91545887  0.66192831  0.70419390     0.84800
O2400       O  0.88363837  0.65976331  0.71398273    -0.80100
loop_ 
_geom_bond_atom_site_label_1 
_geom_bond_atom_site_label_2 
_geom_bond_distance 
_geom_bond_site_symmetry_2 
_ccdc_geom_bond_type 
O1           C17   1.274       .  A
O1           Zn7   2.033       .  S
C2           O18   1.273       .  A
C2           O15   1.272       .  A
C2           C60   1.468       .  S
O3           C16   1.277       .  A
O3          Cd10   2.095       .  S
O4           C22   1.273       .  A
O4          Cd13   2.036       .  S
O5           C19   1.273       .  A
O5           Cd9   2.073       .  S
O6           C17   1.272       .  A
O6           Cd9   2.048       .  S
Zn7          O18   2.010       .  S
Zn7          O20   1.985       .  S
Zn7          O12   1.931       .  S
O8           C19   1.272       .  A
O8          Cd13   2.054       .  S
Cd9          O11   2.042       .  S
Cd9          O12   1.982       .  S
Cd10         O14   2.103       .  S
Cd10         O23   2.098       .  S
Cd10         O12   2.035       .  S
O11          C21   1.274       .  A
O12         Cd13   1.984       .  S
Cd13         O15   2.070       .  S
O14          C21   1.278       .  A
C16          O20   1.274       .  A
C16         C562   1.474       .  S
C17          C37   1.467       .  S
C19          C55   1.467       .  S
C21         C524   1.477       .  S
C22          O23   1.278       .  A
C22         C542   1.473       .  S
C24          C79   1.469       .  S
C24          C25   1.392       .  A
C24          C29   1.395       .  A
C25          C26   1.404       .  A
C25          H30   1.086       .  S
C26         C193   1.479       .  S
C26          C27   1.411       .  A
C27          C28   1.414       .  A
C27          H31   1.083       .  S
C28          C35   1.480       .  S
C28          C29   1.409       .  A
C29          H32   1.084       .  S
C33         C522   1.481       .  S
C33          C34   1.411       .  A
C33          C38   1.403       .  A
C34          C35   1.415       .  A
C34          H39   1.083       .  S
C35          C36   1.409       .  A
C36          C37   1.393       .  A
C36          H40   1.084       .  S
C37          C38   1.392       .  A
C38          H41   1.086       .  S
C42         C198   1.476       .  S
C42          C47   1.402       .  A
C42        C1243   1.410   1_455  A
C43        C1242   1.410       .  A
C43        C1244   1.414       .  A
C43          H48   1.083       .  S
C44          C53   1.477       .  S
C44          C45   1.408       .  A
C44        C1243   1.414   1_455  A
C45          C46   1.393       .  A
C45          H49   1.085       .  S
C46          C96   1.465       .  S
C46          C47   1.391       .  A
C47          H50   1.086       .  S
C51         C521   1.477       .  S
C51          C52   1.410       .  A
C51          C56   1.403       .  A
C52        C1253   1.414       .  A
C52          H57   1.083       .  S
C53          C54   1.409       .  A
C53        C1252   1.414   1_455  A
C54          C55   1.393       .  A
C54          H58   1.085       .  S
C55        C1256   1.391   1_455  A
C56        C1255   1.391       .  A
C56          H59   1.086       .  S
C60          C61   1.394       .  A
C60          C65   1.392       .  A
C61          C62   1.409       .  A
C61          H66   1.084       .  S
C62         C671   1.481       .  S
C62         C663   1.415       .  A
C63          C64   1.412       .  A
C63         C662   1.415   1_545  A
C63          H67   1.083       .  S
C64         C516   1.481       .  S
C64         C665   1.404       .  A
C65         C664   1.404       .  A
C65          H68   1.086       .  S
C69         C199   1.481       .  S
C69          C70   1.412   1_565  A
C69         C674   1.403       .  A
C70          C71   1.416   1_545  A
C70          H75   1.083       .  S
C71         C662   1.481       .  S
C71         C672   1.410       .  A
C72          C73   1.394       .  A
C72         C671   1.410       .  A
C72          H76   1.084       .  S
C73          C94   1.468       .  S
C73          C74   1.392       .  A
C74         C669   1.403       .  A
C74          H77   1.086       .  S
O78          C94   1.274       .  A
O78         Zn84   2.035       .  S
C79          O95   1.273       .  A
C79          O92   1.272       .  A
O80          C93   1.277       .  A
O80         Cd87   2.091       .  S
O81          C99   1.274       .  A
O81         Cd90   2.038       .  S
O82          C96   1.272       .  A
O82         Cd86   2.070       .  S
O83          C94   1.272       .  A
O83         Cd86   2.051       .  S
Zn84         O95   2.013       .  S
Zn84         O97   1.985       .  S
Zn84         O89   1.932       .  S
O85          C96   1.272       .  A
O85         Cd90   2.054       .  S
Cd86         O88   2.042       .  S
Cd86         O89   1.982       .  S
Cd87         O91   2.101       .  S
Cd87        O100   2.098       .  S
Cd87         O89   2.034       .  S
O88          C98   1.274       .  A
O89         Cd90   1.984       .  S
Cd90         O92   2.072       .  S
O91          C98   1.278       .  A
C93          O97   1.274       .  A
C93         C103   1.473       .  S
C98         C160   1.476       .  S
C99         O100   1.278       .  A
C99         C142   1.473       .  S
C101        C194   1.467       .  S
C101        C102   1.391       .  A
C101        C706   1.396       .  A
C102        C103   1.402       .  A
C102        H107   1.086       .  S
C103        C104   1.408       .  A
C104        C105   1.411       .  A
C104        H108   1.083       .  S
C105        C114   1.478       .  S
C105        C706   1.410       .  A
C106        C701   1.396       .  A
C106        C705   1.410       .  A
C106        H109   1.084   1_565  S
C110        C296   1.469       .  S
C110        C111   1.396       .  A
C110        C115   1.408       .  A
C111        C712   1.391       .  A
C111        H116   1.086       .  S
C112        C120   1.463       .  S
C112        C113   1.395       .  A
C112        C711   1.391       .  A
C113        C114   1.408       .  A
C113        H117   1.084       .  S
C114        C715   1.414       .  A
C115        C714   1.414   1_545  A
C115        H118   1.083       .  S
O119        C135   1.271       .  A
O119       Zn125   1.999       .  S
C120        O136   1.272       .  A
C120        O733   1.271       .  A
O121        C134   1.282       .  A
O121       Cd128   2.123       .  S
O122        C140   1.272       .  A
O122       Cd131   2.027       .  S
O123        C137   1.272       .  A
O123       Cd727   2.051   1_545  S
O124       C1335   1.271   1_455  A
O124       Cd127   2.066       .  S
Zn125       O136   2.022       .  S
Zn125       O138   1.971       .  S
Zn125       O130   1.931       .  S
O126        C137   1.271       .  A
O126      Cd1331   2.066       .  S
Cd127       O723   2.051       .  S
Cd127       O729   2.029       .  S
Cd127      O1330   1.982   1_455  S
Cd128      O1932   2.129       .  S
Cd128       O741   2.128       .  S
Cd128       O130   2.040       .  S
O129        C139   1.272   1_565  A
O129       Cd727   2.029       .  S
O130      Cd1327   1.982       .  S
O130       Cd731   1.981       .  S
Cd131       O133   2.041       .  S
Cd131      O1326   2.066       .  S
Cd131       O730   1.981   1_545  S
O132        C139   1.283       .  A
O132      Cd1928   2.129   1_445  S
O133        C720   1.271       .  A
C134        O138   1.271       .  A
C134        C233   1.481       .  S
C135       O1324   1.271       .  A
C135        C173   1.465       .  S
C137        C155   1.465       .  S
C139        C251   1.482       .  S
C140        O141   1.282       .  A
C140        C269   1.482       .  S
O141       Cd728   2.128   1_545  S
C142        C143   1.402       .  A
C142        C147   1.409       .  A
C143        C144   1.390       .  A
C143        H148   1.086       .  S
C144        C196   1.467       .  S
C144        C145   1.395       .  A
C145        C146   1.411       .  A
C145        H149   1.084       .  S
C146        C153   1.478       .  S
C146        C147   1.412       .  A
C147        H150   1.083       .  S
C151        C294   1.470       .  S
C151        C152   1.409       .  A
C151        C156   1.398       .  A
C152        C153   1.414       .  A
C152        H157   1.083       .  S
C153        C154   1.408       .  A
C154        C155   1.395       .  A
C154        H158   1.084       .  S
C155        C156   1.392       .  A
C156        H159   1.086       .  S
C160        C161   1.402       .  A
C160        C165   1.410       .  A
C161       C1362   1.390       .  A
C161        H166   1.086       .  S
C162        C179   1.467       .  S
C162        C163   1.395       .  A
C162       C1361   1.390       .  A
C163        C164   1.411       .  A
C163        H167   1.084       .  S
C164        C169   1.480       .  S
C164       C1365   1.413       .  A
C165       C1364   1.413       .  A
C165        H168   1.083       .  S
C169        C170   1.414       .  A
C169       C1374   1.409       .  A
C170        C171   1.410       .  A
C170        H175   1.083       .  S
C171        C279   1.472       .  S
C171        C172   1.398       .  A
C172        C173   1.392       .  A
C172        H176   1.086       .  S
C173       C1374   1.395       .  A
C174       C1369   1.409   1_455  A
C174       C1373   1.395   1_455  A
C174        H177   1.084       .  S
O178        C194   1.272       .  A
O178       Zn184   2.011       .  S
C179        O195   1.274       .  A
C179       O1392   1.272       .  A
O180        C193   1.279       .  A
O180       Cd187   2.108       .  S
O181        C199   1.275   1_545  A
O181       Cd790   2.046       .  S
O182        C196   1.272       .  A
O182      Cd1386   2.056   1_455  S
O183        C794   1.271   1_545  A
O183       Cd186   2.070       .  S
Zn184       O195   2.032       .  S
Zn184       O197   1.991       .  S
Zn184       O189   1.934       .  S
O185        C196   1.273       .  A
O185       Cd790   2.075       .  S
Cd186      O1382   2.056       .  S
Cd186      O1388   2.041       .  S
Cd186       O789   1.987   1_545  S
Cd187      O1991   2.110       .  S
Cd187      O2000   2.115       .  S
Cd187       O189   2.041       .  S
O188        C198   1.274   1_655  A
O188      Cd1386   2.041       .  S
O189       Cd786   1.987       .  S
O189      Cd1390   1.986       .  S
Cd190       O192   2.051       .  S
Cd190       O781   2.046       .  S
Cd190       O785   2.075       .  S
Cd190      O1389   1.986   1_455  S
O191        C198   1.280       .  A
O191      Cd1987   2.110   1_445  S
O192       C1379   1.272       .  A
C193        O197   1.274       .  A
C194        O783   1.271       .  A
C199        O200   1.280       .  A
O200      Cd1987   2.115   1_455  S
O201        C217   1.273       .  A
O201       Zn207   2.030       .  S
C202        O218   1.272       .  A
C202        O215   1.271       .  A
C202        C244   1.469       .  S
O203        C216   1.280       .  A
O203       Cd210   2.117       .  S
O204        C222   1.273       .  A
O204       Cd213   2.032   1_556  S
O205        C219   1.272       .  A
O205       Cd209   2.072       .  S
O206        C217   1.271       .  A
O206       Cd209   2.049       .  S
Zn207       O218   2.010       .  S
Zn207       O220   1.984   1_554  S
Zn207       O212   1.932   1_554  S
O208        C219   1.271       .  A
O208       Cd213   2.053       .  S
Cd209       O211   2.039   1_554  S
Cd209       O212   1.983   1_554  S
Cd210       O214   2.124       .  S
Cd210       O223   2.119       .  S
Cd210       O212   2.040       .  S
O211        C221   1.274       .  A
O212       Cd213   1.984   1_556  S
Cd213       O215   2.068       .  S
O214        C221   1.281       .  A
C216        O220   1.274       .  A
C216        C351   1.480       .  S
C217        C262   1.467       .  S
C219        C226   1.466       .  S
C221        C369   1.482       .  S
C222        O223   1.281       .  A
C222        C333   1.477       .  S
C224        C321   1.478       .  S
C224        C225   1.403       .  A
C224        C229   1.409       .  A
C225        C226   1.391       .  A
C225        H230   1.086       .  S
C226        C227   1.394       .  A
C227        C228   1.408       .  A
C227        H231   1.084       .  S
C228        C237   1.477       .  S
C228        C229   1.416       .  A
C229        H232   1.083       .  S
C233        C234   1.408       .  A
C233        C238   1.408       .  A
C234        C235   1.397       .  A
C234        H239   1.085       .  S
C235        C293   1.478       .  S
C235        C236   1.397       .  A
C236        C237   1.408       .  A
C236        H240   1.084       .  S
C237        C238   1.411       .  A
C238        H241   1.083       .  S
C242        C316   1.480       .  S
C242        C243   1.404       .  A
C242        C247   1.410       .  A
C243        C844   1.392       .  A
C243        H248   1.086       .  S
C244        C245   1.395       .  A
C244        C843   1.392   1_545  A
C245        C246   1.408       .  A
C245        H249   1.084       .  S
C246        C253   1.479       .  S
C246        C847   1.415   1_545  A
C247        C846   1.415       .  A
C247        H250   1.083       .  S
C251        C256   1.408       .  A
C251        C852   1.410       .  A
C252        C851   1.410       .  A
C252        C853   1.414       .  A
C252        H257   1.083       .  S
C253        C254   1.409       .  A
C253        C852   1.414       .  A
C254        C255   1.397       .  A
C254        H258   1.084       .  S
C255        C298   1.479       .  S
C255        C256   1.395       .  A
C256        H259   1.085       .  S
C260        C322   1.481       .  S
C260        C265   1.411       .  A
C260       C1461   1.403   1_455  A
C261        C262   1.392       .  A
C261       C1460   1.403       .  A
C261        H266   1.086       .  S
C262        C263   1.395       .  A
C263        C264   1.408       .  A
C263        H267   1.084       .  S
C264        C273   1.480       .  S
C264       C1465   1.417       .  A
C265       C1464   1.417   1_455  A
C265        H268   1.083       .  S
C269        C270   1.407       .  A
C269       C1474   1.409       .  A
C270        C271   1.395       .  A
C270        H275   1.085       .  S
C271        C299   1.479       .  S
C271        C272   1.398       .  A
C272        C273   1.410       .  A
C272        H276   1.084       .  S
C273       C1474   1.413       .  A
C274       C1469   1.409       .  A
C274       C1473   1.413       .  A
C274        H277   1.083   1_655  S
O278        C294   1.276       .  A
O278       Zn284   2.046       .  S
C279        O295   1.274       .  A
C279        O292   1.275       .  A
O280        C293   1.274       .  A
O280       Cd287   2.071       .  S
O281        C299   1.277       .  A
O281       Cd290   2.080       .  S
O282        C296   1.275       .  A
O282       Cd286   2.085       .  S
O283        C294   1.274       .  A
O283       Cd286   2.051       .  S
Zn284       O295   2.005       .  S
Zn284       O297   2.028       .  S
Zn284       O289   1.945       .  S
O285        C296   1.275       .  A
O285       Cd290   2.058       .  S
Cd286       O288   2.078       .  S
Cd286       O289   1.998       .  S
Cd287       O291   2.074       .  S
Cd287       O300   2.075       .  S
Cd287       O289   2.016       .  S
O288        C298   1.277       .  A
O289       Cd290   1.998       .  S
Cd290       O292   2.090       .  S
O291        C298   1.275       .  A
C293        O297   1.276       .  A
C299        O300   1.275       .  A
O301        C317   1.272       .  A
O301       Zn307   2.006       .  S
C302        O318   1.273       .  A
C302        O315   1.271       .  A
C302        C373   1.466       .  S
O303        C316   1.281       .  A
O303       Cd310   2.120       .  S
O304        C322   1.274       .  A
O304       Cd313   2.039   1_554  S
O305        C319   1.271       .  A
O305       Cd309   2.051       .  S
O306        C317   1.270       .  A
O306       Cd309   2.063       .  S
Zn307       O318   2.028       .  S
Zn307       O320   1.981   1_556  S
Zn307       O312   1.931   1_556  S
O308        C319   1.272       .  A
O308       Cd313   2.070       .  S
Cd309       O311   2.031   1_556  S
Cd309       O312   1.982   1_556  S
Cd310       O314   2.123       .  S
Cd310       O323   2.124       .  S
Cd310       O312   2.039       .  S
O311        C321   1.273       .  A
O312       Cd313   1.983   1_554  S
Cd313       O315   2.047       .  S
O314        C321   1.282       .  A
C316        O320   1.273       .  A
C317        C353   1.465       .  S
C319        C335   1.465       .  S
C322        O323   1.282       .  A
C324        C493   1.480       .  S
C324        C325   1.409       .  A
C324        C329   1.407       .  A
C325        C326   1.396       .  A
C325        H330   1.085       .  S
C326        C379   1.478       .  S
C326        C327   1.398       .  A
C327        C328   1.408       .  A
C327        H331   1.084       .  S
C328        C337   1.476       .  S
C328        C329   1.410       .  A
C329        H332   1.083       .  S
C333        C334   1.403       .  A
C333        C338   1.409       .  A
C334        C335   1.391       .  A
C334        H339   1.086       .  S
C335        C336   1.394       .  A
C336        C337   1.407       .  A
C336        H340   1.084       .  S
C337        C338   1.415       .  A
C338        H341   1.083       .  S
C342        C499   1.482       .  S
C342        C343   1.409       .  A
C342        C947   1.408       .  A
C343        C344   1.395       .  A
C343        H348   1.085       .  S
C344        C396   1.480       .  S
C344        C345   1.398       .  A
C345        C346   1.410       .  A
C345        H349   1.084       .  S
C346        C355   1.479       .  S
C346        C947   1.413       .  A
C347        C942   1.408       .  A
C347        C946   1.413       .  A
C347        H350   1.083   1_565  S
C351        C356   1.411       .  A
C351        C952   1.403   1_545  A
C352        C353   1.391       .  A
C352        C951   1.403       .  A
C352        H957   1.086       .  S
C353        C354   1.394       .  A
C354        C355   1.407       .  A
C354        H358   1.084       .  S
C355        C956   1.416       .  A
C356        C955   1.416   1_545  A
C356        H359   1.083       .  S
H357        C952   1.086   1_545  S
C360        C498   1.481       .  S
C360        C365   1.407       .  A
C360       C1561   1.408       .  A
C361        C362   1.396       .  A
C361       C1560   1.408       .  A
C361        H366   1.085       .  S
C362        C399   1.481       .  S
C362        C363   1.400       .  A
C363       C1564   1.410       .  A
C363        H367   1.084       .  S
C364       C1571   1.479       .  S
C364        C365   1.412       .  A
C364       C1563   1.410       .  A
C365        H368   1.083       .  S
C369        C370   1.411       .  A
C369        C374   1.403       .  A
C370       C1571   1.417       .  A
C370        H375   1.083       .  S
C371       C1564   1.479       .  S
C371        C372   1.407       .  A
C371       C1570   1.417   1_455  A
C372        C373   1.394       .  A
C372        H376   1.084       .  S
C373       C1574   1.392   1_455  A
C374       C1573   1.392       .  A
C374        H377   1.086       .  S
O378        C394   1.276       .  A
O378       Zn384   2.049       .  S
C379        O395   1.277       .  A
C379        O392   1.274       .  A
O380        C393   1.275       .  A
O380       Cd387   2.091       .  S
O381        C399   1.275       .  A
O381       Cd390   2.073       .  S
O382        C396   1.277       .  A
O382       Cd386   2.083       .  S
O383        C394   1.274       .  A
O383       Cd386   2.053       .  S
Zn384       O395   2.035       .  S
Zn384       O397   2.008       .  S
Zn384       O389   1.948       .  S
O385        C396   1.274       .  A
O385       Cd390   2.073       .  S
Cd386       O388   2.091       .  S
Cd386       O389   1.998       .  S
Cd387       O391   2.061       .  S
Cd387       O400   2.085       .  S
Cd387       O389   2.000       .  S
O388        C398   1.276       .  A
O389       Cd390   2.015       .  S
Cd390       O392   2.067       .  S
O391        C398   1.275       .  A
C393        O397   1.275       .  A
C393        C410   1.472       .  S
C394        C442   1.470       .  S
C398        C460   1.471       .  S
C399        O400   1.278       .  A
C401        C599   1.479       .  S
C401        C402   1.407       .  A
C401        C406   1.407       .  A
C402        C403   1.395       .  A
C402        H407   1.085       .  S
C403        C440   1.480       .  S
C403       C1604   1.399       .  A
C404        C405   1.411       .  A
C404       C1603   1.399       .  A
C404        H408   1.084   1_655  S
C405        C414   1.478   1_655  S
C405       C1606   1.410       .  A
C406       C1605   1.410       .  A
C406        H409   1.083       .  S
C410        C411   1.397       .  A
C410        C415   1.410       .  A
C411        C412   1.392       .  A
C411        H416   1.086       .  S
C412        C479   1.461       .  S
C412       C1613   1.394   1_455  A
C413       C1612   1.394       .  A
C413       C1614   1.406       .  A
C413        H417   1.084       .  S
C414        C415   1.415       .  A
C414       C1613   1.406   1_455  A
C415        H418   1.083       .  S
O419        C435   1.276   1_455  A
O419      Zn1025   2.047       .  S
C420        O436   1.275       .  A
C420        O433   1.275       .  A
C420        C535   1.471       .  S
O421        C434   1.275       .  A
O421       Cd428   2.076   1_445  S
O422        C440   1.277       .  A
O422       Cd431   2.081       .  S
O423        C437   1.275       .  A
O423       Cd427   2.091       .  S
O424       C1635   1.274       .  A
O424       Cd427   2.051       .  S
Zn425       O436   2.005   1_565  S
Zn425       O438   2.032       .  S
Zn425      O1019   2.048       .  S
Zn425       O430   1.945   1_455  S
O426       C1037   1.274       .  A
O426       Cd431   2.059       .  S
Cd427       O429   2.078       .  S
Cd427      O2230   1.997       .  S
Cd428      O2232   2.077       .  S
Cd428      O1641   2.076   1_565  S
Cd428       O430   2.018       .  S
O429        C439   1.277       .  A
O430      Cd2227   1.997       .  S
O430      Cd1631   1.999   1_665  S
Cd431      O1633   2.087       .  S
Cd431      O1630   1.999   1_545  S
O432        C439   1.275       .  A
O432      Cd2228   2.077       .  S
O433      Cd1631   2.087       .  S
C434        O438   1.277   1_545  A
C434       C1069   1.482       .  S
C435       O1624   1.274       .  A
C435       C1751   1.469       .  S
C437       O1026   1.274       .  A
C437        C569   1.472       .  S
C439        C453   1.480       .  S
C440        O441   1.275       .  A
O441      Cd1628   2.076   1_545  S
C442        C443   1.397       .  A
C442        C447   1.409       .  A
C443        C444   1.391       .  A
C443        H448   1.086       .  S
C444        C496   1.461       .  S
C444        C445   1.395       .  A
C445        C446   1.406       .  A
C445        H449   1.084       .  S
C446        C455   1.479       .  S
C446        C447   1.416       .  A
C447        H450   1.083       .  S
C451        C598   1.477       .  S
C451        C452   1.406       .  A
C451        C456   1.407       .  A
C452        C453   1.395       .  A
C452        H457   1.085       .  S
C453        C454   1.400       .  A
C454        C455   1.411       .  A
C454        H458   1.084       .  S
C455        C456   1.410       .  A
C456        H459   1.083       .  S
C460        C461   1.397       .  A
C460        C465   1.409       .  A
C461       C1062   1.392       .  A
C461        H466   1.086       .  S
C462        C494   1.462       .  S
C462        C463   1.395   1_565  A
C462       C1061   1.392       .  A
C463        C464   1.407   1_545  A
C463        H467   1.084       .  S
C464       C1073   1.480   1_565  S
C464       C1065   1.416       .  A
C465       C1064   1.416       .  A
C465        H468   1.083       .  S
C469       C1034   1.482       .  S
C469        C474   1.400       .  A
C469       C1070   1.397       .  A
C470        C471   1.407       .  A
C470       C1069   1.397       .  A
C470        H475   1.085       .  S
C471        C593   1.479       .  S
C471        C472   1.407       .  A
C472       C1073   1.409       .  A
C472        H476   1.083       .  S
C473       C1064   1.480       .  S
C473        C474   1.411       .  A
C473       C1072   1.409       .  A
C474        H477   1.084       .  S
O478        C494   1.271   1_545  A
O478       Zn484   2.016       .  S
C479        O495   1.270       .  A
C479       O1692   1.269   1_455  A
O480        C493   1.283       .  A
O480       Cd487   2.126   1_455  S
O481        C499   1.271       .  A
O481      Cd1090   2.021       .  S
O482        C496   1.270       .  A
O482      Cd1686   2.058       .  S
O483       C1094   1.270       .  A
O483       Cd486   2.039   1_455  S
Zn484       O495   1.992       .  S
Zn484       O497   1.963       .  S
Zn484       O489   1.926   1_455  S
O485        C496   1.271       .  A
O485      Cd1090   2.048       .  S
Cd486      O1682   2.058       .  S
Cd486      O1688   2.022       .  S
Cd486      O1089   1.977       .  S
Cd487      O2291   2.131   1_645  S
Cd487      O2300   2.135   1_545  S
Cd487       O489   2.036       .  S
O488        C498   1.271       .  A
O488      Cd1686   2.022       .  S
O489      Cd1086   1.977   1_545  S
O489      Cd1690   1.978       .  S
Cd490       O492   2.056       .  S
Cd490      O1081   2.021       .  S
Cd490      O1085   2.048   1_545  S
Cd490      O1689   1.978       .  S
O491        C498   1.283       .  A
O491      Cd2287   2.131       .  S
O492       C1679   1.269       .  A
C493        O497   1.270       .  A
C494       O1083   1.270       .  A
C499        O500   1.284       .  A
O500      Cd2287   2.135       .  S
O501        C517   1.273       .  A
O501       Zn507   2.013       .  S
C502        O518   1.274       .  A
C502        O515   1.272       .  A
C502        C526   1.468       .  S
O503        C516   1.279       .  A
O503       Cd510   2.110       .  S
O504        C522   1.275       .  A
O504       Cd513   2.046       .  S
O505        C519   1.272       .  A
O505       Cd509   2.057       .  S
O506        C517   1.272       .  A
O506       Cd509   2.072       .  S
Zn507       O518   2.036       .  S
Zn507       O520   1.993       .  S
Zn507       O512   1.936       .  S
O508        C519   1.273       .  A
O508       Cd513   2.077       .  S
Cd509       O511   2.039       .  S
Cd509       O512   1.987       .  S
Cd510       O514   2.113       .  S
Cd510       O523   2.114       .  S
Cd510       O512   2.042       .  S
O511        C521   1.274       .  A
O512       Cd513   1.986       .  S
Cd513       O515   2.051       .  S
O514        C521   1.280       .  A
C516        O520   1.275       .  A
C517        C560   1.469       .  S
C519        C544   1.468       .  S
C522        O523   1.280       .  A
C524        C525   1.403       .  A
C524        C529   1.410       .  A
C525        C526   1.391       .  A
C525        H530   1.086       .  S
C526        C527   1.395       .  A
C527        C528   1.411       .  A
C527        H531   1.084       .  S
C528        C537   1.480       .  S
C528        C529   1.413       .  A
C529        H532   1.083       .  S
C533        C594   1.464       .  S
C533        C534   1.391       .  A
C533        C538   1.395       .  A
C534        C535   1.397       .  A
C534        H539   1.086       .  S
C535        C536   1.410       .  A
C536        C537   1.414       .  A
C536        H540   1.083       .  S
C537        C538   1.408       .  A
C538        H541   1.084       .  S
C542        C543   1.402       .  A
C542        C547   1.408       .  A
C543       C1744   1.390   1_455  A
C543        H548   1.086       .  S
C544        C545   1.395       .  A
C544       C1743   1.390       .  A
C545        C546   1.411       .  A
C545        H549   1.084       .  S
C546        C553   1.478       .  S
C546       C1747   1.411       .  A
C547       C1746   1.411   1_455  A
C547        H550   1.083       .  S
C551       C1635   1.469       .  S
C551        C556   1.397       .  A
C551       C1752   1.409       .  A
C552       C1751   1.409   1_455  A
C552       C1753   1.414   1_455  A
C552        H557   1.083       .  S
C553        C554   1.407       .  A
C553       C1752   1.414       .  A
C554        C555   1.394       .  A
C554        H558   1.084       .  S
C555        C596   1.462       .  S
C555        C556   1.391       .  A
C556        H559   1.086       .  S
C560        C561   1.391   1_545  A
C560        C565   1.396       .  A
C561       C1162   1.402       .  A
C561        H566   1.086       .  S
C562        C563   1.409       .  A
C562       C1161   1.403       .  A
C563       C1164   1.411       .  A
C563        H567   1.083       .  S
C564       C1173   1.479       .  S
C564        C565   1.411       .  A
C564       C1163   1.411   1_545  A
C565        H568   1.084       .  S
C569        C574   1.410       .  A
C569       C1170   1.397       .  A
C570        C571   1.392       .  A
C570       C1169   1.397       .  A
C570        H575   1.086       .  S
C571        C579   1.463       .  S
C571        C572   1.394       .  A
C572       C1173   1.408       .  A
C572        H576   1.084       .  S
C573       C1164   1.479       .  S
C573        C574   1.415       .  A
C573       C1172   1.408       .  A
C574        H577   1.083       .  S
O578        C594   1.272       .  A
O578       Zn584   1.998       .  S
C579        O595   1.272       .  A
C579        O592   1.270       .  A
O580        C593   1.280       .  A
O580       Cd587   2.111       .  S
O581        C599   1.271       .  A
O581       Cd590   2.025       .  S
O582        C596   1.271       .  A
O582       Cd586   2.049       .  S
O583        C594   1.270       .  A
O583       Cd586   2.062       .  S
Zn584       O595   2.024       .  S
Zn584       O597   1.977       .  S
Zn584       O589   1.929       .  S
O585        C596   1.270       .  A
O585       Cd590   2.060       .  S
Cd586       O588   2.028       .  S
Cd586       O589   1.981       .  S
Cd587       O591   2.115       .  S
Cd587       O600   2.119       .  S
Cd587       O589   2.032       .  S
O588        C598   1.272       .  A
O589       Cd590   1.978       .  S
Cd590       O592   2.038       .  S
O591        C598   1.281       .  A
C593        O597   1.272       .  A
C599        O600   1.281       .  A
O601        C617   1.274       .  A
O601       Zn607   2.034       .  S
C602        O618   1.273       .  A
C602        O615   1.272       .  A
C602        C660   1.468       .  S
O603        C616   1.277       .  A
O603       Cd610   2.096       .  S
O604        C622   1.273       .  A
O604       Cd613   2.036       .  S
O605        C619   1.272       .  A
O605       Cd609   2.073       .  S
O606        C617   1.272       .  A
O606       Cd609   2.048       .  S
Zn607       O618   2.010       .  S
Zn607       O620   1.985       .  S
Zn607       O612   1.931       .  S
O608        C619   1.272       .  A
O608       Cd613   2.054       .  S
Cd609       O611   2.041       .  S
Cd609       O612   1.982       .  S
Cd610       O614   2.103       .  S
Cd610       O623   2.098       .  S
Cd610       O612   2.035       .  S
O611        C621   1.274       .  A
O612       Cd613   1.984       .  S
Cd613       O615   2.070       .  S
O614        C621   1.278       .  A
C616        O620   1.274       .  A
C616       C1162   1.474       .  S
C617        C637   1.467       .  S
C619        C655   1.467       .  S
C621       C1124   1.477       .  S
C622        O623   1.278       .  A
C622       C1142   1.473       .  S
C624        C679   1.469       .  S
C624        C625   1.392       .  A
C624        C629   1.395       .  A
C625        C626   1.404       .  A
C625        H630   1.086       .  S
C626        C793   1.479       .  S
C626        C627   1.411       .  A
C627        C628   1.414       .  A
C627        H631   1.083       .  S
C628        C635   1.480       .  S
C628        C629   1.409       .  A
C629        H632   1.084       .  S
C633       C1122   1.481       .  S
C633        C634   1.411       .  A
C633        C638   1.403       .  A
C634        C635   1.416       .  A
C634        H639   1.083       .  S
C635        C636   1.409       .  A
C636        C637   1.393       .  A
C636        H640   1.084       .  S
C637        C638   1.392       .  A
C638        H641   1.086       .  S
C642        C798   1.476       .  S
C642       C1843   1.410   1_455  A
C642        C647   1.402       .  A
C643       C1842   1.410       .  A
C643       C1844   1.414       .  A
C643        H648   1.083       .  S
C644        C653   1.477       .  S
C644       C1843   1.414   1_455  A
C644        C645   1.408       .  A
C645        C646   1.393       .  A
C645        H649   1.085       .  S
C646        C696   1.465       .  S
C646        C647   1.391       .  A
C647        H650   1.086       .  S
C651       C1121   1.477       .  S
C651        C652   1.410       .  A
C651        C656   1.403       .  A
C652       C1853   1.414       .  A
C652        H657   1.083       .  S
C653       C1852   1.414   1_455  A
C653        C654   1.409       .  A
C654        C655   1.393       .  A
C654        H658   1.085       .  S
C655       C1856   1.391   1_455  A
C656       C1855   1.391       .  A
C656        H659   1.086       .  S
C660        C661   1.394       .  A
C660        C665   1.392   1_565  A
C661        C662   1.409       .  A
C661        H666   1.084       .  S
C663        C664   1.412       .  A
C663        H667   1.083       .  S
C664       C1116   1.481       .  S
C665        H668   1.086       .  S
C669        C799   1.481       .  S
C669        C670   1.412       .  A
C670        C671   1.416       .  A
C670        H675   1.083       .  S
C672        C673   1.394       .  A
C672        H676   1.084       .  S
C673        C694   1.468       .  S
C673        C674   1.392       .  A
C674        H677   1.086       .  S
O678        C694   1.274       .  A
O678       Zn684   2.035       .  S
C679        O695   1.273       .  A
C679        O692   1.272       .  A
O680        C693   1.277       .  A
O680       Cd687   2.091       .  S
O681        C699   1.274       .  A
O681       Cd690   2.038       .  S
O682        C696   1.272       .  A
O682       Cd686   2.070       .  S
O683        C694   1.272       .  A
O683       Cd686   2.051       .  S
Zn684       O695   2.013       .  S
Zn684       O697   1.986       .  S
Zn684       O689   1.932       .  S
O685        C696   1.272       .  A
O685       Cd690   2.054       .  S
Cd686       O688   2.042       .  S
Cd686       O689   1.982       .  S
Cd687       O691   2.101       .  S
Cd687       O700   2.098       .  S
Cd687       O689   2.034       .  S
O688        C698   1.274       .  A
O689       Cd690   1.984       .  S
Cd690       O692   2.072       .  S
O691        C698   1.278       .  A
C693        O697   1.274       .  A
C693        C703   1.473       .  S
C698        C760   1.476       .  S
C699        O700   1.278       .  A
C699        C742   1.473       .  S
C701        C794   1.467       .  S
C701        C702   1.391       .  A
C702        C703   1.402       .  A
C702        H707   1.086       .  S
C703        C704   1.408       .  A
C704        C705   1.411       .  A
C704        H708   1.083       .  S
C705        C714   1.478       .  S
C706        H709   1.084       .  S
C710        C896   1.469       .  S
C710        C711   1.396       .  A
C710        C715   1.408       .  A
C711        H716   1.086       .  S
C712        C720   1.463       .  S
C712        C713   1.395   1_545  A
C713        C714   1.408       .  A
C713        H717   1.084       .  S
C715        H718   1.083       .  S
O719        C735   1.271       .  A
O719       Zn725   1.999       .  S
C720        O736   1.272   1_545  A
O721        C734   1.282       .  A
O721       Cd728   2.123       .  S
O722        C740   1.272       .  A
O722       Cd731   2.027       .  S
O723        C737   1.272       .  A
O724       C1935   1.271   1_455  A
O724       Cd727   2.066       .  S
Zn725       O736   2.022       .  S
Zn725       O738   1.971       .  S
Zn725       O730   1.931       .  S
O726        C737   1.271       .  A
O726      Cd1931   2.066       .  S
Cd727      O1930   1.982   1_455  S
Cd728      O1332   2.129   1_565  S
Cd728       O730   2.040       .  S
O729        C739   1.272       .  A
O730      Cd1927   1.982       .  S
Cd731      O1926   2.066       .  S
Cd731       O733   2.041       .  S
O732        C739   1.283       .  A
O732      Cd1328   2.129   1_455  S
C734        O738   1.271       .  A
C734        C833   1.481       .  S
C735       O1924   1.271       .  A
C735        C773   1.465       .  S
C737        C755   1.465       .  S
C739        C851   1.483       .  S
C740        O741   1.282       .  A
C740        C869   1.482       .  S
C742        C743   1.402       .  A
C742        C747   1.409       .  A
C743        C744   1.390       .  A
C743        H748   1.086       .  S
C744        C796   1.467       .  S
C744        C745   1.395       .  A
C745        C746   1.411       .  A
C745        H749   1.084       .  S
C746        C753   1.478       .  S
C746        C747   1.412       .  A
C747        H750   1.083       .  S
C751        C894   1.470       .  S
C751        C752   1.409       .  A
C751        C756   1.398       .  A
C752        C753   1.414       .  A
C752        H757   1.083       .  S
C753        C754   1.408       .  A
C754        C755   1.395       .  A
C754        H758   1.084       .  S
C755        C756   1.392       .  A
C756        H759   1.086       .  S
C760        C761   1.402       .  A
C760        C765   1.410       .  A
C761       C1962   1.390       .  A
C761        H766   1.086       .  S
C762        C779   1.467       .  S
C762       C1961   1.390       .  A
C762        C763   1.395       .  A
C763        C764   1.411       .  A
C763        H767   1.084       .  S
C764        C769   1.480       .  S
C764       C1965   1.413       .  A
C765       C1964   1.413       .  A
C765        H768   1.083       .  S
C769        C770   1.414       .  A
C769       C1974   1.409       .  A
C770        C771   1.410       .  A
C770        H775   1.083       .  S
C771        C879   1.471       .  S
C771        C772   1.398       .  A
C772        C773   1.392       .  A
C772        H776   1.086       .  S
C773       C1974   1.395       .  A
C774       C1969   1.409   1_455  A
C774       C1973   1.395   1_455  A
C774        H777   1.084       .  S
O778        C794   1.272       .  A
O778       Zn784   2.011       .  S
C779        O795   1.274       .  A
C779       O1992   1.272       .  A
O780        C793   1.279       .  A
O780       Cd787   2.108       .  S
O781        C799   1.275       .  A
O782        C796   1.272       .  A
O782      Cd1986   2.056   1_455  S
O783       Cd786   2.070       .  S
Zn784       O795   2.032       .  S
Zn784       O797   1.991       .  S
Zn784       O789   1.934       .  S
O785        C796   1.273       .  A
Cd786      O1982   2.056       .  S
Cd786      O1988   2.041       .  S
Cd787      O1391   2.110   1_565  S
Cd787      O1400   2.115       .  S
Cd787       O789   2.041       .  S
O788        C798   1.274   1_655  A
O788      Cd1986   2.041       .  S
O789      Cd1990   1.986   1_565  S
Cd790       O792   2.051   1_545  S
Cd790      O1989   1.986   1_445  S
O791        C798   1.280       .  A
O791      Cd1387   2.110   1_455  S
O792       C1979   1.272       .  A
C793        O797   1.274       .  A
C799        O800   1.280       .  A
O800      Cd1387   2.115   1_455  S
O801        C817   1.273       .  A
O801       Zn807   2.030       .  S
C802        O818   1.272       .  A
C802        O815   1.271       .  A
C802        C844   1.468       .  S
O803        C816   1.280       .  A
O803       Cd810   2.117       .  S
O804        C822   1.273       .  A
O804       Cd813   2.032   1_556  S
O805        C819   1.272       .  A
O805       Cd809   2.072       .  S
O806        C817   1.271       .  A
O806       Cd809   2.049       .  S
Zn807       O818   2.010       .  S
Zn807       O820   1.984   1_554  S
Zn807       O812   1.932   1_554  S
O808        C819   1.271       .  A
O808       Cd813   2.053       .  S
Cd809       O811   2.039   1_554  S
Cd809       O812   1.983   1_554  S
Cd810       O814   2.124       .  S
Cd810       O823   2.119       .  S
Cd810       O812   2.040       .  S
O811        C821   1.274       .  A
O812       Cd813   1.984   1_556  S
Cd813       O815   2.068       .  S
O814        C821   1.281       .  A
C816        O820   1.274       .  A
C816        C951   1.480       .  S
C817        C862   1.467       .  S
C819        C826   1.466       .  S
C821        C969   1.481       .  S
C822        O823   1.281       .  A
C822        C933   1.477       .  S
C824        C921   1.478       .  S
C824        C825   1.403       .  A
C824        C829   1.409       .  A
C825        C826   1.391       .  A
C825        H830   1.086       .  S
C826        C827   1.394       .  A
C827        C828   1.408       .  A
C827        H831   1.084       .  S
C828        C837   1.477       .  S
C828        C829   1.416       .  A
C829        H832   1.083       .  S
C833        C834   1.408       .  A
C833        C838   1.408       .  A
C834        C835   1.397       .  A
C834        H839   1.085       .  S
C835        C893   1.478       .  S
C835        C836   1.397       .  A
C836        C837   1.408       .  A
C836        H840   1.084       .  S
C837        C838   1.411       .  A
C838        H841   1.083       .  S
C842        C916   1.480       .  S
C842        C843   1.404       .  A
C842        C847   1.410       .  A
C843        H848   1.086       .  S
C844        C845   1.395       .  A
C845        C846   1.408       .  A
C845        H849   1.084       .  S
C846        C853   1.479       .  S
C847        H850   1.083       .  S
C851        C856   1.408       .  A
C852        H857   1.083   1_545  S
C853        C854   1.409       .  A
C854        C855   1.397       .  A
C854        H858   1.084       .  S
C855        C898   1.479       .  S
C855        C856   1.395       .  A
C856        H859   1.085       .  S
C860        C922   1.481       .  S
C860       C2061   1.403   1_455  A
C860        C865   1.411       .  A
C861       C2060   1.403       .  A
C861        C862   1.392       .  A
C861        H866   1.086       .  S
C862        C863   1.395       .  A
C863        C864   1.408       .  A
C863        H867   1.084       .  S
C864        C873   1.480       .  S
C864       C2065   1.417       .  A
C865       C2064   1.417   1_455  A
C865        H868   1.083       .  S
C869        C870   1.407       .  A
C869       C2074   1.409       .  A
C870        C871   1.395       .  A
C870        H875   1.085       .  S
C871        C899   1.479       .  S
C871        C872   1.398       .  A
C872        C873   1.410       .  A
C872        H876   1.084       .  S
C873       C2074   1.413       .  A
C874       C2069   1.409       .  A
C874       C2073   1.413       .  A
C874        H877   1.083   1_655  S
O878        C894   1.276       .  A
O878       Zn884   2.046       .  S
C879        O895   1.274       .  A
C879        O892   1.275       .  A
O880        C893   1.274       .  A
O880       Cd887   2.071       .  S
O881        C899   1.277       .  A
O881       Cd890   2.080       .  S
O882        C896   1.275       .  A
O882       Cd886   2.085       .  S
O883        C894   1.274       .  A
O883       Cd886   2.051       .  S
Zn884       O895   2.005       .  S
Zn884       O897   2.028       .  S
Zn884       O889   1.945       .  S
O885        C896   1.275       .  A
O885       Cd890   2.058       .  S
Cd886       O888   2.078       .  S
Cd886       O889   1.998       .  S
Cd887       O891   2.074       .  S
Cd887       O900   2.075       .  S
Cd887       O889   2.016       .  S
O888        C898   1.277       .  A
O889       Cd890   1.998       .  S
Cd890       O892   2.090       .  S
O891        C898   1.275       .  A
C893        O897   1.276       .  A
C899        O900   1.275       .  A
O901        C917   1.272       .  A
O901       Zn907   2.006       .  S
C902        O918   1.273       .  A
C902        O915   1.271       .  A
C902        C973   1.466       .  S
O903        C916   1.281       .  A
O903       Cd910   2.120       .  S
O904        C922   1.274       .  A
O904       Cd913   2.039   1_554  S
O905        C919   1.271       .  A
O905       Cd909   2.052       .  S
O906        C917   1.270       .  A
O906       Cd909   2.063       .  S
Zn907       O918   2.028       .  S
Zn907       O920   1.981   1_556  S
Zn907       O912   1.931   1_556  S
O908        C919   1.272       .  A
O908       Cd913   2.070       .  S
Cd909       O911   2.031   1_556  S
Cd909       O912   1.983   1_556  S
Cd910       O914   2.123       .  S
Cd910       O923   2.124       .  S
Cd910       O912   2.039       .  S
O911        C921   1.273       .  A
O912       Cd913   1.983   1_554  S
Cd913       O915   2.047       .  S
O914        C921   1.282       .  A
C916        O920   1.273       .  A
C917        C953   1.465       .  S
C919        C935   1.465       .  S
C922        O923   1.282       .  A
C924       C1093   1.480       .  S
C924        C925   1.409       .  A
C924        C929   1.407       .  A
C925        C926   1.396       .  A
C925        H930   1.085       .  S
C926        C979   1.478       .  S
C926        C927   1.398       .  A
C927        C928   1.408       .  A
C927        H931   1.084       .  S
C928        C937   1.476       .  S
C928        C929   1.410       .  A
C929        H932   1.083       .  S
C933        C934   1.403       .  A
C933        C938   1.409       .  A
C934        C935   1.391       .  A
C934        H939   1.086       .  S
C935        C936   1.394       .  A
C936        C937   1.407       .  A
C936        H940   1.084       .  S
C937        C938   1.415       .  A
C938        H941   1.083       .  S
C942       C1099   1.482       .  S
C942        C943   1.409       .  A
C943        C944   1.395       .  A
C943        H948   1.085       .  S
C944        C996   1.480       .  S
C944        C945   1.398       .  A
C945        C946   1.410       .  A
C945        H949   1.084       .  S
C946        C955   1.479       .  S
C947        H950   1.083       .  S
C951        C956   1.411       .  A
C952        C953   1.391       .  A
C953        C954   1.394       .  A
C954        C955   1.407       .  A
C954        H958   1.084       .  S
C956        H959   1.083       .  S
C960       C1098   1.481       .  S
C960       C2161   1.408       .  A
C960        C965   1.407       .  A
C961       C2160   1.408       .  A
C961        C962   1.396       .  A
C961        H966   1.085       .  S
C962        C999   1.481       .  S
C962        C963   1.400       .  A
C963       C2164   1.410       .  A
C963        H967   1.084       .  S
C964       C2171   1.479       .  S
C964       C2163   1.410       .  A
C964        C965   1.412       .  A
C965        H968   1.083       .  S
C969        C970   1.411       .  A
C969        C974   1.403       .  A
C970       C2171   1.417       .  A
C970        H975   1.083       .  S
C971       C2164   1.479       .  S
C971       C2170   1.417   1_455  A
C971        C972   1.407       .  A
C972        C973   1.394       .  A
C972        H976   1.084       .  S
C973       C2174   1.392   1_455  A
C974       C2173   1.392       .  A
C974        H977   1.086       .  S
O978        C994   1.276       .  A
O978       Zn984   2.049       .  S
C979        O995   1.277       .  A
C979        O992   1.274       .  A
O980        C993   1.276       .  A
O980       Cd987   2.091       .  S
O981        C999   1.275       .  A
O981       Cd990   2.073       .  S
O982        C996   1.277       .  A
O982       Cd986   2.083       .  S
O983        C994   1.274       .  A
O983       Cd986   2.053       .  S
Zn984       O995   2.035       .  S
Zn984       O997   2.008       .  S
Zn984       O989   1.948       .  S
O985        C996   1.274       .  A
O985       Cd990   2.073       .  S
Cd986       O988   2.091       .  S
Cd986       O989   1.998       .  S
Cd987       O991   2.061       .  S
Cd987      O1000   2.085       .  S
Cd987       O989   2.000       .  S
O988        C998   1.276       .  A
O989       Cd990   2.015       .  S
Cd990       O992   2.067       .  S
O991        C998   1.275       .  A
C993        O997   1.275       .  A
C993       C1010   1.472       .  S
C994       C1042   1.470       .  S
C998       C1060   1.471       .  S
C999       O1000   1.278       .  A
C1001      C1199   1.479       .  S
C1001      C1002   1.407       .  A
C1001      C1006   1.407       .  A
C1002      C1003   1.395       .  A
C1002      H1007   1.085       .  S
C1003      C1040   1.480       .  S
C1003      C2204   1.399       .  A
C1004      C2203   1.399       .  A
C1004      C1005   1.411       .  A
C1004      H1008   1.084   1_655  S
C1005      C1014   1.479   1_655  S
C1005      C2206   1.410       .  A
C1006      C2205   1.410       .  A
C1006      H1009   1.083       .  S
C1010      C1011   1.398       .  A
C1010      C1015   1.410       .  A
C1011      C1012   1.392       .  A
C1011      H1016   1.086       .  S
C1012      C1079   1.461       .  S
C1012      C2213   1.394   1_455  A
C1013      C2212   1.394       .  A
C1013      C2214   1.406       .  A
C1013      H1017   1.084       .  S
C1014      C2213   1.406   1_455  A
C1014      C1015   1.415       .  A
C1015      H1018   1.083       .  S
O1019      C1035   1.276   1_455  A
C1020      O1036   1.275       .  A
C1020      O1033   1.275       .  A
C1020      C1135   1.471       .  S
O1021      C1034   1.275       .  A
O1021     Cd1028   2.076   1_455  S
O1022      C1040   1.277       .  A
O1022     Cd1031   2.081       .  S
O1023      C1037   1.275   1_565  A
O1023     Cd1027   2.091       .  S
O1024      C2235   1.274       .  A
O1024     Cd1027   2.051       .  S
Zn1025     O1036   2.005       .  S
Zn1025     O1038   2.032       .  S
Zn1025     O1030   1.945   1_455  S
O1026     Cd1031   2.059       .  S
Cd1027     O1029   2.078       .  S
Cd1027     O1630   1.997       .  S
Cd1028     O1632   2.077       .  S
Cd1028     O2241   2.076       .  S
Cd1028     O1030   2.018       .  S
O1029      C1039   1.277       .  A
O1030     Cd1627   1.997       .  S
O1030     Cd2231   1.999   1_655  S
Cd1031     O2233   2.088       .  S
Cd1031     O2230   1.999       .  S
O1032      C1039   1.275       .  A
O1032     Cd1628   2.077       .  S
O1033     Cd2231   2.088       .  S
C1034      O1038   1.277       .  A
C1035      O2224   1.274       .  A
C1035      C2351   1.469       .  S
C1037      C1169   1.472       .  S
C1039      C1053   1.480       .  S
C1040      O1041   1.275       .  A
O1041     Cd2228   2.076       .  S
C1042      C1043   1.397       .  A
C1042      C1047   1.409       .  A
C1043      C1044   1.391       .  A
C1043      H1048   1.086       .  S
C1044      C1096   1.461       .  S
C1044      C1045   1.395       .  A
C1045      C1046   1.406       .  A
C1045      H1049   1.084       .  S
C1046      C1055   1.479       .  S
C1046      C1047   1.416       .  A
C1047      H1050   1.083       .  S
C1051      C1198   1.477       .  S
C1051      C1052   1.406       .  A
C1051      C1056   1.407       .  A
C1052      C1053   1.395       .  A
C1052      H1057   1.085       .  S
C1053      C1054   1.400       .  A
C1054      C1055   1.411       .  A
C1054      H1058   1.084       .  S
C1055      C1056   1.410       .  A
C1056      H1059   1.083       .  S
C1060      C1061   1.397       .  A
C1060      C1065   1.409       .  A
C1061      H1066   1.086       .  S
C1062      C1094   1.461       .  S
C1062      C1063   1.395       .  A
C1063      C1064   1.407       .  A
C1063      H1067   1.084       .  S
C1065      H1068   1.083       .  S
C1069      C1074   1.400       .  A
C1070      C1071   1.407       .  A
C1070      H1075   1.085       .  S
C1071      C1193   1.479       .  S
C1071      C1072   1.407       .  A
C1072      H1076   1.083       .  S
C1073      C1074   1.411       .  A
C1074      H1077   1.084   1_545  S
O1078      C1094   1.271       .  A
O1078     Zn1084   2.016       .  S
C1079      O1095   1.270       .  A
C1079      O2292   1.269   1_455  A
O1080      C1093   1.283       .  A
O1080     Cd1087   2.126   1_455  S
O1081      C1099   1.271   1_545  A
O1082      C1096   1.270       .  A
O1082     Cd2286   2.058       .  S
O1083     Cd1086   2.039   1_455  S
Zn1084     O1095   1.992       .  S
Zn1084     O1097   1.963       .  S
Zn1084     O1089   1.926   1_455  S
O1085      C1096   1.271       .  A
Cd1086     O2282   2.058       .  S
Cd1086     O2288   2.021       .  S
Cd1087     O1691   2.131   1_655  S
Cd1087     O1700   2.135       .  S
Cd1087     O1089   2.036       .  S
O1088      C1098   1.271       .  A
O1088     Cd2286   2.021       .  S
O1089     Cd2290   1.978       .  S
Cd1090     O1092   2.056       .  S
Cd1090     O2289   1.978       .  S
O1091      C1098   1.283       .  A
O1091     Cd1687   2.131   1_565  S
O1092      C2279   1.269       .  A
C1093      O1097   1.270       .  A
C1099      O1100   1.284       .  A
O1100     Cd1687   2.135   1_565  S
O1101      C1117   1.273       .  A
O1101     Zn1107   2.013       .  S
C1102      O1118   1.274       .  A
C1102      O1115   1.272       .  A
C1102      C1126   1.468       .  S
O1103      C1116   1.279       .  A
O1103     Cd1110   2.110       .  S
O1104      C1122   1.275       .  A
O1104     Cd1113   2.046       .  S
O1105      C1119   1.272       .  A
O1105     Cd1109   2.057       .  S
O1106      C1117   1.272       .  A
O1106     Cd1109   2.072       .  S
Zn1107     O1118   2.036       .  S
Zn1107     O1120   1.993       .  S
Zn1107     O1112   1.936       .  S
O1108      C1119   1.273       .  A
O1108     Cd1113   2.076       .  S
Cd1109     O1111   2.039       .  S
Cd1109     O1112   1.987       .  S
Cd1110     O1114   2.113       .  S
Cd1110     O1123   2.114       .  S
Cd1110     O1112   2.042       .  S
O1111      C1121   1.274       .  A
O1112     Cd1113   1.986       .  S
Cd1113     O1115   2.051       .  S
O1114      C1121   1.280       .  A
C1116      O1120   1.275       .  A
C1117      C1160   1.469       .  S
C1119      C1144   1.468       .  S
C1122      O1123   1.280       .  A
C1124      C1125   1.403       .  A
C1124      C1129   1.410       .  A
C1125      C1126   1.391       .  A
C1125      H1130   1.086       .  S
C1126      C1127   1.395       .  A
C1127      C1128   1.411       .  A
C1127      H1131   1.084       .  S
C1128      C1137   1.480       .  S
C1128      C1129   1.413       .  A
C1129      H1132   1.083       .  S
C1133      C1194   1.464       .  S
C1133      C1134   1.391       .  A
C1133      C1138   1.395       .  A
C1134      C1135   1.397       .  A
C1134      H1139   1.086       .  S
C1135      C1136   1.410       .  A
C1136      C1137   1.414       .  A
C1136      H1140   1.083       .  S
C1137      C1138   1.408       .  A
C1138      H1141   1.084       .  S
C1142      C1143   1.402       .  A
C1142      C1147   1.408       .  A
C1143      C2344   1.390   1_455  A
C1143      H1148   1.086       .  S
C1144      C2343   1.390       .  A
C1144      C1145   1.395       .  A
C1145      C1146   1.411       .  A
C1145      H1149   1.084       .  S
C1146      C1153   1.478       .  S
C1146      C2347   1.411       .  A
C1147      C2346   1.411   1_455  A
C1147      H1150   1.083       .  S
C1151      C2235   1.469       .  S
C1151      C2352   1.409       .  A
C1151      C1156   1.397       .  A
C1152      C2351   1.409   1_455  A
C1152      C2353   1.414   1_455  A
C1152      H1157   1.083       .  S
C1153      C2352   1.414       .  A
C1153      C1154   1.407       .  A
C1154      C1155   1.394       .  A
C1154      H1158   1.084       .  S
C1155      C1196   1.462       .  S
C1155      C1156   1.391       .  A
C1156      H1159   1.086       .  S
C1160      C1161   1.391       .  A
C1160      C1165   1.396       .  A
C1161      H1166   1.086       .  S
C1162      C1163   1.409       .  A
C1163      H1167   1.083       .  S
C1164      C1165   1.411       .  A
C1165      H1168   1.084       .  S
C1169      C1174   1.410   1_545  A
C1170      C1171   1.392       .  A
C1170      H1175   1.086       .  S
C1171      C1179   1.463       .  S
C1171      C1172   1.394       .  A
C1172      H1176   1.084       .  S
C1173      C1174   1.415   1_545  A
C1174      H1177   1.083       .  S
O1178      C1194   1.272       .  A
O1178     Zn1184   1.998       .  S
C1179      O1195   1.272       .  A
C1179      O1192   1.270       .  A
O1180      C1193   1.280       .  A
O1180     Cd1187   2.111       .  S
O1181      C1199   1.271       .  A
O1181     Cd1190   2.025       .  S
O1182      C1196   1.271       .  A
O1182     Cd1186   2.049       .  S
O1183      C1194   1.270       .  A
O1183     Cd1186   2.062       .  S
Zn1184     O1195   2.024       .  S
Zn1184     O1197   1.977       .  S
Zn1184     O1189   1.929       .  S
O1185      C1196   1.270       .  A
O1185     Cd1190   2.060       .  S
Cd1186     O1188   2.028       .  S
Cd1186     O1189   1.981       .  S
Cd1187     O1191   2.115       .  S
Cd1187     O1200   2.119       .  S
Cd1187     O1189   2.032       .  S
O1188      C1198   1.272       .  A
O1189     Cd1190   1.978       .  S
Cd1190     O1192   2.038       .  S
O1191      C1198   1.281       .  A
C1193      O1197   1.272       .  A
C1199      O1200   1.281       .  A
O1201      C1217   1.274       .  A
O1201     Zn1207   2.033       .  S
C1202      O1218   1.273       .  A
C1202      O1215   1.272       .  A
C1202      C1260   1.468       .  S
O1203      C1216   1.277       .  A
O1203     Cd1210   2.095       .  S
O1204      C1222   1.273       .  A
O1204     Cd1213   2.036       .  S
O1205      C1219   1.273       .  A
O1205     Cd1209   2.073       .  S
O1206      C1217   1.272       .  A
O1206     Cd1209   2.048       .  S
Zn1207     O1218   2.010       .  S
Zn1207     O1220   1.985       .  S
Zn1207     O1212   1.931       .  S
O1208      C1219   1.272       .  A
O1208     Cd1213   2.054       .  S
Cd1209     O1211   2.042       .  S
Cd1209     O1212   1.982       .  S
Cd1210     O1214   2.103       .  S
Cd1210     O1223   2.098       .  S
Cd1210     O1212   2.035       .  S
O1211      C1221   1.274       .  A
O1212     Cd1213   1.984       .  S
Cd1213     O1215   2.070       .  S
O1214      C1221   1.278       .  A
C1216      O1220   1.274       .  A
C1216      C1762   1.474       .  S
C1217      C1237   1.467       .  S
C1219      C1255   1.467       .  S
C1221      C1724   1.477       .  S
C1222      O1223   1.278       .  A
C1222      C1742   1.473       .  S
C1224      C1279   1.469       .  S
C1224      C1225   1.392       .  A
C1224      C1229   1.395       .  A
C1225      C1226   1.404       .  A
C1225      H1230   1.086       .  S
C1226      C1393   1.479       .  S
C1226      C1227   1.411       .  A
C1227      C1228   1.414       .  A
C1227      H1231   1.083       .  S
C1228      C1235   1.480       .  S
C1228      C1229   1.409       .  A
C1229      H1232   1.084       .  S
C1233      C1722   1.481       .  S
C1233      C1234   1.411       .  A
C1233      C1238   1.403       .  A
C1234      C1235   1.415       .  A
C1234      H1239   1.083       .  S
C1235      C1236   1.409       .  A
C1236      C1237   1.393       .  A
C1236      H1240   1.084       .  S
C1237      C1238   1.392       .  A
C1238      H1241   1.086       .  S
C1242      C1398   1.476       .  S
C1242      C1247   1.402       .  A
C1243      H1248   1.083       .  S
C1244      C1253   1.477       .  S
C1244      C1245   1.408       .  A
C1245      C1246   1.393       .  A
C1245      H1249   1.085       .  S
C1246      C1296   1.465       .  S
C1246      C1247   1.391       .  A
C1247      H1250   1.086       .  S
C1251      C1721   1.477       .  S
C1251      C1252   1.410       .  A
C1251      C1256   1.403       .  A
C1252      H1257   1.083       .  S
C1253      C1254   1.409       .  A
C1254      C1255   1.393       .  A
C1254      H1258   1.085       .  S
C1256      H1259   1.086       .  S
C1260      C1261   1.394       .  A
C1260      C1265   1.392       .  A
C1261      C1262   1.409       .  A
C1261      H1266   1.084       .  S
C1262      C1871   1.481       .  S
C1262      C1863   1.415       .  A
C1263      C1862   1.415   1_545  A
C1263      C1264   1.412       .  A
C1263      H1267   1.083       .  S
C1264      C1716   1.481       .  S
C1264      C1865   1.404       .  A
C1265      C1864   1.404       .  A
C1265      H1268   1.086       .  S
C1269      C1399   1.481       .  S
C1269      C1270   1.412   1_565  A
C1269      C1874   1.403       .  A
C1270      C1271   1.416   1_545  A
C1270      H1275   1.083       .  S
C1271      C1862   1.481       .  S
C1271      C1872   1.410       .  A
C1272      C1871   1.410       .  A
C1272      C1273   1.394       .  A
C1272      H1276   1.084       .  S
C1273      C1294   1.468       .  S
C1273      C1274   1.392       .  A
C1274      C1869   1.403       .  A
C1274      H1277   1.086       .  S
O1278      C1294   1.274       .  A
O1278     Zn1284   2.035       .  S
C1279      O1295   1.273       .  A
C1279      O1292   1.272       .  A
O1280      C1293   1.277       .  A
O1280     Cd1287   2.091       .  S
O1281      C1299   1.274       .  A
O1281     Cd1290   2.038       .  S
O1282      C1296   1.272       .  A
O1282     Cd1286   2.070       .  S
O1283      C1294   1.272       .  A
O1283     Cd1286   2.051       .  S
Zn1284     O1295   2.013       .  S
Zn1284     O1297   1.985       .  S
Zn1284     O1289   1.932       .  S
O1285      C1296   1.272       .  A
O1285     Cd1290   2.054       .  S
Cd1286     O1288   2.042       .  S
Cd1286     O1289   1.982       .  S
Cd1287     O1291   2.101       .  S
Cd1287     O1300   2.098       .  S
Cd1287     O1289   2.034       .  S
O1288      C1298   1.274       .  A
O1289     Cd1290   1.984       .  S
Cd1290     O1292   2.072       .  S
O1291      C1298   1.278       .  A
C1293      O1297   1.274       .  A
C1293      C1303   1.473       .  S
C1298      C1360   1.476       .  S
C1299      O1300   1.278       .  A
C1299      C1342   1.473       .  S
C1301      C1394   1.467       .  S
C1301      C1302   1.391       .  A
C1301      C1906   1.396       .  A
C1302      C1303   1.402       .  A
C1302      H1307   1.086       .  S
C1303      C1304   1.408       .  A
C1304      C1305   1.411       .  A
C1304      H1308   1.083       .  S
C1305      C1314   1.478       .  S
C1305      C1906   1.410       .  A
C1306      C1901   1.396       .  A
C1306      C1905   1.410       .  A
C1306      H1309   1.084   1_565  S
C1310      C1496   1.469       .  S
C1310      C1311   1.396       .  A
C1310      C1315   1.408       .  A
C1311      C1912   1.391       .  A
C1311      H1316   1.086       .  S
C1312      C1320   1.463       .  S
C1312      C1911   1.391       .  A
C1312      C1313   1.395       .  A
C1313      C1314   1.408       .  A
C1313      H1317   1.084       .  S
C1314      C1915   1.414       .  A
C1315      C1914   1.414   1_545  A
C1315      H1318   1.083       .  S
O1319      C1335   1.271       .  A
O1319     Zn1325   1.999       .  S
C1320      O1336   1.272       .  A
C1320      O1933   1.271       .  A
O1321      C1334   1.282       .  A
O1321     Cd1328   2.123       .  S
O1322      C1340   1.272       .  A
O1322     Cd1331   2.027   1_655  S
O1323      C1337   1.272       .  A
O1323     Cd1927   2.051   1_545  S
O1324     Cd1327   2.066       .  S
Zn1325     O1336   2.022       .  S
Zn1325     O1338   1.971       .  S
Zn1325     O1330   1.931       .  S
O1326      C1337   1.271       .  A
Cd1327     O1923   2.051       .  S
Cd1327     O1929   2.029       .  S
Cd1328     O1941   2.128       .  S
Cd1328     O1330   2.040       .  S
O1329      C1339   1.272   1_565  A
O1329     Cd1927   2.029       .  S
O1330     Cd1931   1.981   1_655  S
Cd1331     O1333   2.041   1_455  S
Cd1331     O1930   1.981   1_445  S
O1332      C1339   1.283       .  A
O1333      C1920   1.271       .  A
C1334      O1338   1.271       .  A
C1334      C1433   1.481       .  S
C1335      C1373   1.465       .  S
C1337      C1355   1.465       .  S
C1339      C1451   1.482       .  S
C1340      O1341   1.282       .  A
C1340      C1469   1.482       .  S
O1341     Cd1928   2.128   1_545  S
C1342      C1343   1.402       .  A
C1342      C1347   1.409       .  A
C1343      C1344   1.390       .  A
C1343      H1348   1.086       .  S
C1344      C1396   1.467       .  S
C1344      C1345   1.395       .  A
C1345      C1346   1.411       .  A
C1345      H1349   1.084       .  S
C1346      C1353   1.478       .  S
C1346      C1347   1.412       .  A
C1347      H1350   1.083       .  S
C1351      C1494   1.470       .  S
C1351      C1352   1.409       .  A
C1351      C1356   1.398       .  A
C1352      C1353   1.414       .  A
C1352      H1357   1.083       .  S
C1353      C1354   1.408       .  A
C1354      C1355   1.395       .  A
C1354      H1358   1.084       .  S
C1355      C1356   1.392       .  A
C1356      H1359   1.086       .  S
C1360      C1361   1.402       .  A
C1360      C1365   1.410       .  A
C1361      H1366   1.086       .  S
C1362      C1379   1.467       .  S
C1362      C1363   1.395   1_455  A
C1363      C1364   1.411   1_655  A
C1363      H1367   1.084       .  S
C1364      C1369   1.480   1_455  S
C1365      H1368   1.083       .  S
C1369      C1370   1.414       .  A
C1370      C1371   1.410       .  A
C1370      H1375   1.083       .  S
C1371      C1479   1.472       .  S
C1371      C1372   1.398       .  A
C1372      C1373   1.392       .  A
C1372      H1376   1.086       .  S
C1374      H1377   1.084       .  S
O1378      C1394   1.272       .  A
O1378     Zn1384   2.011       .  S
C1379      O1395   1.274   1_455  A
O1380      C1393   1.279       .  A
O1380     Cd1387   2.108       .  S
O1381      C1399   1.275   1_545  A
O1381     Cd1990   2.046       .  S
O1382      C1396   1.272       .  A
O1383      C1994   1.271   1_545  A
O1383     Cd1386   2.070       .  S
Zn1384     O1395   2.032       .  S
Zn1384     O1397   1.991       .  S
Zn1384     O1389   1.934       .  S
O1385      C1396   1.273       .  A
O1385     Cd1990   2.075       .  S
Cd1386     O1989   1.987   1_545  S
Cd1387     O1389   2.041       .  S
O1388      C1398   1.274       .  A
O1389     Cd1986   1.987       .  S
Cd1390     O1981   2.046       .  S
Cd1390     O1985   2.075       .  S
Cd1390     O1392   2.051       .  S
O1391      C1398   1.280       .  A
C1393      O1397   1.274       .  A
C1394      O1983   1.271       .  A
C1399      O1400   1.280       .  A
O1401      C1417   1.273       .  A
O1401     Zn1407   2.030       .  S
C1402      O1418   1.272       .  A
C1402      O1415   1.271       .  A
C1402      C1444   1.469       .  S
O1403      C1416   1.280       .  A
O1403     Cd1410   2.117       .  S
O1404      C1422   1.273       .  A
O1404     Cd1413   2.032   1_556  S
O1405      C1419   1.272       .  A
O1405     Cd1409   2.072       .  S
O1406      C1417   1.271       .  A
O1406     Cd1409   2.049       .  S
Zn1407     O1418   2.010       .  S
Zn1407     O1420   1.984   1_554  S
Zn1407     O1412   1.932   1_554  S
O1408      C1419   1.271       .  A
O1408     Cd1413   2.053       .  S
Cd1409     O1411   2.039   1_554  S
Cd1409     O1412   1.983   1_554  S
Cd1410     O1414   2.124       .  S
Cd1410     O1423   2.119       .  S
Cd1410     O1412   2.040       .  S
O1411      C1421   1.274       .  A
O1412     Cd1413   1.984   1_556  S
Cd1413     O1415   2.068       .  S
O1414      C1421   1.281       .  A
C1416      O1420   1.274       .  A
C1416      C1551   1.480       .  S
C1417      C1462   1.467       .  S
C1419      C1426   1.466       .  S
C1421      C1569   1.482       .  S
C1422      O1423   1.281       .  A
C1422      C1533   1.477       .  S
C1424      C1521   1.478       .  S
C1424      C1425   1.403       .  A
C1424      C1429   1.409       .  A
C1425      C1426   1.391       .  A
C1425      H1430   1.086       .  S
C1426      C1427   1.394       .  A
C1427      C1428   1.408       .  A
C1427      H1431   1.084       .  S
C1428      C1437   1.477       .  S
C1428      C1429   1.416       .  A
C1429      H1432   1.083       .  S
C1433      C1434   1.408       .  A
C1433      C1438   1.408       .  A
C1434      C1435   1.397       .  A
C1434      H1439   1.085       .  S
C1435      C1493   1.478       .  S
C1435      C1436   1.397       .  A
C1436      C1437   1.408       .  A
C1436      H1440   1.084       .  S
C1437      C1438   1.411       .  A
C1438      H1441   1.083       .  S
C1442      C1516   1.480       .  S
C1442      C1443   1.404       .  A
C1442      C1447   1.410       .  A
C1443      C2044   1.392       .  A
C1443      H1448   1.086       .  S
C1444      C2043   1.392   1_545  A
C1444      C1445   1.395       .  A
C1445      C1446   1.408       .  A
C1445      H1449   1.084       .  S
C1446      C1453   1.479       .  S
C1446      C2047   1.415   1_545  A
C1447      C2046   1.415       .  A
C1447      H1450   1.083       .  S
C1451      C2052   1.410       .  A
C1451      C1456   1.408       .  A
C1452      C2051   1.410       .  A
C1452      C2053   1.414       .  A
C1452      H1457   1.083       .  S
C1453      C2052   1.414       .  A
C1453      C1454   1.409       .  A
C1454      C1455   1.397       .  A
C1454      H1458   1.084       .  S
C1455      C1498   1.479       .  S
C1455      C1456   1.395       .  A
C1456      H1459   1.085       .  S
C1460      C1522   1.481       .  S
C1460      C1465   1.411       .  A
C1461      C1462   1.392       .  A
C1461      H1466   1.086   1_655  S
C1462      C1463   1.395       .  A
C1463      C1464   1.408       .  A
C1463      H1467   1.084       .  S
C1464      C1473   1.480       .  S
C1465      H1468   1.083       .  S
C1469      C1470   1.407       .  A
C1470      C1471   1.395       .  A
C1470      H1475   1.085       .  S
C1471      C1499   1.479       .  S
C1471      C1472   1.398       .  A
C1472      C1473   1.410       .  A
C1472      H1476   1.084       .  S
C1474      H1477   1.083       .  S
O1478      C1494   1.276       .  A
O1478     Zn1484   2.046       .  S
C1479      O1495   1.274       .  A
C1479      O1492   1.275       .  A
O1480      C1493   1.274       .  A
O1480     Cd1487   2.071       .  S
O1481      C1499   1.277       .  A
O1481     Cd1490   2.080       .  S
O1482      C1496   1.275       .  A
O1482     Cd1486   2.085       .  S
O1483      C1494   1.274       .  A
O1483     Cd1486   2.051       .  S
Zn1484     O1495   2.005       .  S
Zn1484     O1497   2.028       .  S
Zn1484     O1489   1.945       .  S
O1485      C1496   1.275       .  A
O1485     Cd1490   2.058       .  S
Cd1486     O1488   2.078       .  S
Cd1486     O1489   1.998       .  S
Cd1487     O1491   2.074       .  S
Cd1487     O1500   2.075       .  S
Cd1487     O1489   2.016       .  S
O1488      C1498   1.277       .  A
O1489     Cd1490   1.998       .  S
Cd1490     O1492   2.090       .  S
O1491      C1498   1.275       .  A
C1493      O1497   1.276       .  A
C1499      O1500   1.275       .  A
O1501      C1517   1.272       .  A
O1501     Zn1507   2.006       .  S
C1502      O1518   1.273       .  A
C1502      O1515   1.271       .  A
C1502      C1573   1.466       .  S
O1503      C1516   1.281       .  A
O1503     Cd1510   2.120       .  S
O1504      C1522   1.274       .  A
O1504     Cd1513   2.039   1_554  S
O1505      C1519   1.271       .  A
O1505     Cd1509   2.051       .  S
O1506      C1517   1.270       .  A
O1506     Cd1509   2.063       .  S
Zn1507     O1518   2.028       .  S
Zn1507     O1520   1.981   1_556  S
Zn1507     O1512   1.931   1_556  S
O1508      C1519   1.272       .  A
O1508     Cd1513   2.070       .  S
Cd1509     O1511   2.031   1_556  S
Cd1509     O1512   1.982   1_556  S
Cd1510     O1514   2.123       .  S
Cd1510     O1523   2.124       .  S
Cd1510     O1512   2.039       .  S
O1511      C1521   1.273       .  A
O1512     Cd1513   1.983   1_554  S
Cd1513     O1515   2.047       .  S
O1514      C1521   1.282       .  A
C1516      O1520   1.273       .  A
C1517      C1553   1.465       .  S
C1519      C1535   1.465       .  S
C1522      O1523   1.282       .  A
C1524      C1693   1.480       .  S
C1524      C1525   1.409       .  A
C1524      C1529   1.407       .  A
C1525      C1526   1.396       .  A
C1525      H1530   1.085       .  S
C1526      C1579   1.478       .  S
C1526      C1527   1.398       .  A
C1527      C1528   1.408       .  A
C1527      H1531   1.084       .  S
C1528      C1537   1.476       .  S
C1528      C1529   1.410       .  A
C1529      H1532   1.083       .  S
C1533      C1534   1.403       .  A
C1533      C1538   1.409       .  A
C1534      C1535   1.391       .  A
C1534      H1539   1.086       .  S
C1535      C1536   1.394       .  A
C1536      C1537   1.407       .  A
C1536      H1540   1.084       .  S
C1537      C1538   1.415       .  A
C1538      H1541   1.083       .  S
C1542      C1699   1.482       .  S
C1542      C1543   1.409       .  A
C1542      C2147   1.408       .  A
C1543      C1544   1.395       .  A
C1543      H1548   1.085       .  S
C1544      C1596   1.480       .  S
C1544      C1545   1.398       .  A
C1545      C1546   1.410       .  A
C1545      H1549   1.084       .  S
C1546      C1555   1.479       .  S
C1546      C2147   1.413       .  A
C1547      C2142   1.408       .  A
C1547      C2146   1.413       .  A
C1547      H1550   1.083   1_565  S
C1551      C2152   1.403   1_545  A
C1551      C1556   1.411       .  A
C1552      C2151   1.403       .  A
C1552      C1553   1.391       .  A
C1552      H2157   1.086       .  S
C1553      C1554   1.394       .  A
C1554      C1555   1.407       .  A
C1554      H1558   1.084       .  S
C1555      C2156   1.416       .  A
C1556      C2155   1.416   1_545  A
C1556      H1559   1.083       .  S
H1557      C2152   1.086   1_545  S
C1560      C1698   1.481       .  S
C1560      C1565   1.407       .  A
C1561      C1562   1.396       .  A
C1561      H1566   1.085       .  S
C1562      C1599   1.481       .  S
C1562      C1563   1.400       .  A
C1563      H1567   1.084       .  S
C1564      C1565   1.412       .  A
C1565      H1568   1.083   1_455  S
C1569      C1570   1.411       .  A
C1569      C1574   1.403       .  A
C1570      H1575   1.083       .  S
C1571      C1572   1.407       .  A
C1572      C1573   1.394       .  A
C1572      H1576   1.084       .  S
C1574      H1577   1.086       .  S
O1578      C1594   1.276       .  A
O1578     Zn1584   2.049       .  S
C1579      O1595   1.277       .  A
C1579      O1592   1.274       .  A
O1580      C1593   1.275       .  A
O1580     Cd1587   2.091       .  S
O1581      C1599   1.275       .  A
O1581     Cd1590   2.073       .  S
O1582      C1596   1.277       .  A
O1582     Cd1586   2.083       .  S
O1583      C1594   1.274       .  A
O1583     Cd1586   2.053       .  S
Zn1584     O1595   2.035       .  S
Zn1584     O1597   2.008       .  S
Zn1584     O1589   1.948       .  S
O1585      C1596   1.274       .  A
O1585     Cd1590   2.073       .  S
Cd1586     O1588   2.091       .  S
Cd1586     O1589   1.998       .  S
Cd1587     O1591   2.061       .  S
Cd1587     O1600   2.085       .  S
Cd1587     O1589   2.000       .  S
O1588      C1598   1.276       .  A
O1589     Cd1590   2.015       .  S
Cd1590     O1592   2.067       .  S
O1591      C1598   1.275       .  A
C1593      O1597   1.275       .  A
C1593      C1610   1.472       .  S
C1594      C1642   1.470       .  S
C1598      C1660   1.471       .  S
C1599      O1600   1.278       .  A
C1601      C1799   1.479       .  S
C1601      C1602   1.407       .  A
C1601      C1606   1.407       .  A
C1602      C1603   1.395       .  A
C1602      H1607   1.085       .  S
C1603      C1640   1.480       .  S
C1604      C1605   1.411       .  A
C1604      H1608   1.084       .  S
C1605      C1614   1.478       .  S
C1606      H1609   1.083       .  S
C1610      C1611   1.397       .  A
C1610      C1615   1.410       .  A
C1611      C1612   1.392       .  A
C1611      H1616   1.086       .  S
C1612      C1679   1.461       .  S
C1613      H1617   1.084       .  S
C1614      C1615   1.415       .  A
C1615      H1618   1.083       .  S
O1619      C1635   1.276       .  A
O1619     Zn2225   2.047       .  S
C1620      O1636   1.275       .  A
C1620      O1633   1.275       .  A
C1620      C1735   1.471       .  S
O1621      C1634   1.275       .  A
O1621     Cd1628   2.076   1_545  S
O1622      C1640   1.277       .  A
O1622     Cd1631   2.081   1_655  S
O1623      C1637   1.275       .  A
O1623     Cd1627   2.091       .  S
O1624     Cd1627   2.051       .  S
Zn1625     O2219   2.048       .  S
Zn1625     O1636   2.005   1_565  S
Zn1625     O1638   2.032       .  S
Zn1625     O1630   1.946       .  S
O1626      C2237   1.274       .  A
O1626     Cd1631   2.059   1_655  S
Cd1627     O1629   2.078       .  S
Cd1628     O1630   2.018       .  S
O1629      C1639   1.277       .  A
O1632      C1639   1.275       .  A
C1634      O1638   1.277   1_545  A
C1634      C2269   1.482       .  S
C1637      O2226   1.274       .  A
C1637      C1769   1.472       .  S
C1639      C1653   1.480       .  S
C1640      O1641   1.275       .  A
C1642      C1643   1.397       .  A
C1642      C1647   1.409       .  A
C1643      C1644   1.391       .  A
C1643      H1648   1.086       .  S
C1644      C1696   1.461       .  S
C1644      C1645   1.395       .  A
C1645      C1646   1.406       .  A
C1645      H1649   1.084       .  S
C1646      C1655   1.479       .  S
C1646      C1647   1.416       .  A
C1647      H1650   1.083       .  S
C1651      C1798   1.477       .  S
C1651      C1652   1.406       .  A
C1651      C1656   1.407       .  A
C1652      C1653   1.395       .  A
C1652      H1657   1.085       .  S
C1653      C1654   1.400       .  A
C1654      C1655   1.411       .  A
C1654      H1658   1.084       .  S
C1655      C1656   1.410       .  A
C1656      H1659   1.083       .  S
C1660      C1661   1.397       .  A
C1660      C1665   1.409       .  A
C1661      C2262   1.392       .  A
C1661      H1666   1.086       .  S
C1662      C1694   1.462       .  S
C1662      C2261   1.392       .  A
C1662      C1663   1.395   1_565  A
C1663      C1664   1.407   1_545  A
C1663      H1667   1.084       .  S
C1664      C2273   1.480   1_565  S
C1664      C2265   1.416       .  A
C1665      C2264   1.416       .  A
C1665      H1668   1.083       .  S
C1669      C2234   1.482       .  S
C1669      C2270   1.397       .  A
C1669      C1674   1.400       .  A
C1670      C2269   1.397       .  A
C1670      C1671   1.407       .  A
C1670      H1675   1.085       .  S
C1671      C1793   1.479       .  S
C1671      C1672   1.407       .  A
C1672      C2273   1.409       .  A
C1672      H1676   1.083       .  S
C1673      C2264   1.480       .  S
C1673      C2272   1.409       .  A
C1673      C1674   1.411       .  A
C1674      H1677   1.084       .  S
O1678      C1694   1.271   1_545  A
O1678     Zn1684   2.016       .  S
C1679      O1695   1.270       .  A
O1680      C1693   1.283       .  A
O1680     Cd1687   2.126       .  S
O1681      C1699   1.271       .  A
O1681     Cd2290   2.021       .  S
O1682      C1696   1.270       .  A
O1683      C2294   1.270       .  A
O1683     Cd1686   2.039       .  S
Zn1684     O1695   1.992       .  S
Zn1684     O1697   1.963       .  S
Zn1684     O1689   1.926       .  S
O1685      C1696   1.271       .  A
O1685     Cd2290   2.048       .  S
Cd1686     O2289   1.977       .  S
Cd1687     O1689   2.036       .  S
O1688      C1698   1.271   1_655  A
O1689     Cd2286   1.977   1_545  S
Cd1690     O2281   2.021       .  S
Cd1690     O2285   2.048   1_545  S
Cd1690     O1692   2.056       .  S
O1691      C1698   1.283       .  A
C1693      O1697   1.270       .  A
C1694      O2283   1.270       .  A
C1699      O1700   1.284       .  A
O1701      C1717   1.273       .  A
O1701     Zn1707   2.013       .  S
C1702      O1718   1.274       .  A
C1702      O1715   1.272       .  A
C1702      C1726   1.468       .  S
O1703      C1716   1.279       .  A
O1703     Cd1710   2.110       .  S
O1704      C1722   1.275       .  A
O1704     Cd1713   2.046       .  S
O1705      C1719   1.272       .  A
O1705     Cd1709   2.057       .  S
O1706      C1717   1.272       .  A
O1706     Cd1709   2.072       .  S
Zn1707     O1718   2.036       .  S
Zn1707     O1720   1.993       .  S
Zn1707     O1712   1.936       .  S
O1708      C1719   1.273       .  A
O1708     Cd1713   2.077       .  S
Cd1709     O1711   2.039       .  S
Cd1709     O1712   1.987       .  S
Cd1710     O1714   2.113       .  S
Cd1710     O1723   2.114       .  S
Cd1710     O1712   2.042       .  S
O1711      C1721   1.274       .  A
O1712     Cd1713   1.986       .  S
Cd1713     O1715   2.051       .  S
O1714      C1721   1.280       .  A
C1716      O1720   1.275       .  A
C1717      C1760   1.469       .  S
C1719      C1744   1.468       .  S
C1722      O1723   1.280       .  A
C1724      C1725   1.403       .  A
C1724      C1729   1.410       .  A
C1725      C1726   1.391       .  A
C1725      H1730   1.086       .  S
C1726      C1727   1.395       .  A
C1727      C1728   1.411       .  A
C1727      H1731   1.084       .  S
C1728      C1737   1.480       .  S
C1728      C1729   1.413       .  A
C1729      H1732   1.083       .  S
C1733      C1794   1.464       .  S
C1733      C1734   1.391       .  A
C1733      C1738   1.395       .  A
C1734      C1735   1.397       .  A
C1734      H1739   1.086       .  S
C1735      C1736   1.410       .  A
C1736      C1737   1.414       .  A
C1736      H1740   1.083       .  S
C1737      C1738   1.408       .  A
C1738      H1741   1.084       .  S
C1742      C1743   1.402       .  A
C1742      C1747   1.408       .  A
C1743      H1748   1.086       .  S
C1744      C1745   1.395       .  A
C1745      C1746   1.411       .  A
C1745      H1749   1.084       .  S
C1746      C1753   1.478       .  S
C1747      H1750   1.083       .  S
C1751      C1756   1.397       .  A
C1752      H1757   1.083       .  S
C1753      C1754   1.407       .  A
C1754      C1755   1.394       .  A
C1754      H1758   1.084       .  S
C1755      C1796   1.462       .  S
C1755      C1756   1.391       .  A
C1756      H1759   1.086       .  S
C1760      C1761   1.391   1_545  A
C1760      C1765   1.396       .  A
C1761      C2362   1.402       .  A
C1761      H1766   1.086       .  S
C1762      C2361   1.403       .  A
C1762      C1763   1.409       .  A
C1763      C2364   1.411       .  A
C1763      H1767   1.083       .  S
C1764      C2373   1.479       .  S
C1764      C2363   1.411   1_545  A
C1764      C1765   1.411       .  A
C1765      H1768   1.084       .  S
C1769      C2370   1.397       .  A
C1769      C1774   1.410       .  A
C1770      C2369   1.397       .  A
C1770      C1771   1.392       .  A
C1770      H1775   1.086       .  S
C1771      C1779   1.463       .  S
C1771      C1772   1.394       .  A
C1772      C2373   1.408       .  A
C1772      H1776   1.084       .  S
C1773      C2364   1.479       .  S
C1773      C2372   1.408       .  A
C1773      C1774   1.415       .  A
C1774      H1777   1.083       .  S
O1778      C1794   1.272       .  A
O1778     Zn1784   1.998       .  S
C1779      O1795   1.272       .  A
C1779      O1792   1.270       .  A
O1780      C1793   1.280       .  A
O1780     Cd1787   2.111       .  S
O1781      C1799   1.271       .  A
O1781     Cd1790   2.025       .  S
O1782      C1796   1.271       .  A
O1782     Cd1786   2.049       .  S
O1783      C1794   1.270       .  A
O1783     Cd1786   2.062       .  S
Zn1784     O1795   2.024       .  S
Zn1784     O1797   1.977       .  S
Zn1784     O1789   1.929       .  S
O1785      C1796   1.270       .  A
O1785     Cd1790   2.060       .  S
Cd1786     O1788   2.028       .  S
Cd1786     O1789   1.981       .  S
Cd1787     O1791   2.115       .  S
Cd1787     O1800   2.119       .  S
Cd1787     O1789   2.032       .  S
O1788      C1798   1.272       .  A
O1789     Cd1790   1.978       .  S
Cd1790     O1792   2.038       .  S
O1791      C1798   1.281       .  A
C1793      O1797   1.272       .  A
C1799      O1800   1.281       .  A
O1801      C1817   1.274       .  A
O1801     Zn1807   2.034       .  S
C1802      O1818   1.273       .  A
C1802      O1815   1.272       .  A
C1802      C1860   1.468       .  S
O1803      C1816   1.277       .  A
O1803     Cd1810   2.096       .  S
O1804      C1822   1.273       .  A
O1804     Cd1813   2.036       .  S
O1805      C1819   1.272       .  A
O1805     Cd1809   2.073       .  S
O1806      C1817   1.272       .  A
O1806     Cd1809   2.048       .  S
Zn1807     O1818   2.010       .  S
Zn1807     O1820   1.985       .  S
Zn1807     O1812   1.931       .  S
O1808      C1819   1.272       .  A
O1808     Cd1813   2.054       .  S
Cd1809     O1811   2.041       .  S
Cd1809     O1812   1.982       .  S
Cd1810     O1814   2.103       .  S
Cd1810     O1823   2.098       .  S
Cd1810     O1812   2.035       .  S
O1811      C1821   1.274       .  A
O1812     Cd1813   1.984       .  S
Cd1813     O1815   2.070       .  S
O1814      C1821   1.278       .  A
C1816      O1820   1.274       .  A
C1816      C2362   1.474       .  S
C1817      C1837   1.467       .  S
C1819      C1855   1.467       .  S
C1821      C2324   1.477       .  S
C1822      O1823   1.278       .  A
C1822      C2342   1.473       .  S
C1824      C1879   1.469       .  S
C1824      C1825   1.392       .  A
C1824      C1829   1.395       .  A
C1825      C1826   1.404       .  A
C1825      H1830   1.086       .  S
C1826      C1993   1.479       .  S
C1826      C1827   1.411       .  A
C1827      C1828   1.414       .  A
C1827      H1831   1.083       .  S
C1828      C1835   1.480       .  S
C1828      C1829   1.409       .  A
C1829      H1832   1.084       .  S
C1833      C2322   1.481       .  S
C1833      C1834   1.411       .  A
C1833      C1838   1.403       .  A
C1834      C1835   1.416       .  A
C1834      H1839   1.083       .  S
C1835      C1836   1.409       .  A
C1836      C1837   1.393       .  A
C1836      H1840   1.084       .  S
C1837      C1838   1.392       .  A
C1838      H1841   1.086       .  S
C1842      C1998   1.476       .  S
C1842      C1847   1.402       .  A
C1843      H1848   1.083       .  S
C1844      C1853   1.477       .  S
C1844      C1845   1.408       .  A
C1845      C1846   1.393       .  A
C1845      H1849   1.085       .  S
C1846      C1896   1.465       .  S
C1846      C1847   1.391       .  A
C1847      H1850   1.086       .  S
C1851      C2321   1.477       .  S
C1851      C1852   1.410       .  A
C1851      C1856   1.403       .  A
C1852      H1857   1.083       .  S
C1853      C1854   1.409       .  A
C1854      C1855   1.393       .  A
C1854      H1858   1.085       .  S
C1856      H1859   1.086       .  S
C1860      C1861   1.394       .  A
C1860      C1865   1.392   1_565  A
C1861      C1862   1.409       .  A
C1861      H1866   1.084       .  S
C1863      C1864   1.412       .  A
C1863      H1867   1.083       .  S
C1864      C2316   1.481       .  S
C1865      H1868   1.086       .  S
C1869      C1999   1.481       .  S
C1869      C1870   1.412       .  A
C1870      C1871   1.416       .  A
C1870      H1875   1.083       .  S
C1872      C1873   1.394       .  A
C1872      H1876   1.084       .  S
C1873      C1894   1.468       .  S
C1873      C1874   1.392       .  A
C1874      H1877   1.086       .  S
O1878      C1894   1.274       .  A
O1878     Zn1884   2.035       .  S
C1879      O1895   1.273       .  A
C1879      O1892   1.272       .  A
O1880      C1893   1.277       .  A
O1880     Cd1887   2.091       .  S
O1881      C1899   1.274       .  A
O1881     Cd1890   2.038       .  S
O1882      C1896   1.272       .  A
O1882     Cd1886   2.070       .  S
O1883      C1894   1.272       .  A
O1883     Cd1886   2.051       .  S
Zn1884     O1895   2.013       .  S
Zn1884     O1897   1.986       .  S
Zn1884     O1889   1.932       .  S
O1885      C1896   1.272       .  A
O1885     Cd1890   2.054       .  S
Cd1886     O1888   2.042       .  S
Cd1886     O1889   1.982       .  S
Cd1887     O1891   2.101       .  S
Cd1887     O1900   2.098       .  S
Cd1887     O1889   2.034       .  S
O1888      C1898   1.274       .  A
O1889     Cd1890   1.984       .  S
Cd1890     O1892   2.072       .  S
O1891      C1898   1.278       .  A
C1893      O1897   1.274       .  A
C1893      C1903   1.473       .  S
C1898      C1960   1.476       .  S
C1899      O1900   1.278       .  A
C1899      C1942   1.473       .  S
C1901      C1994   1.467       .  S
C1901      C1902   1.391       .  A
C1902      C1903   1.402       .  A
C1902      H1907   1.086       .  S
C1903      C1904   1.408       .  A
C1904      C1905   1.411       .  A
C1904      H1908   1.083       .  S
C1905      C1914   1.478       .  S
C1906      H1909   1.084       .  S
C1910      C2096   1.469       .  S
C1910      C1911   1.396       .  A
C1910      C1915   1.408       .  A
C1911      H1916   1.086       .  S
C1912      C1920   1.463       .  S
C1912      C1913   1.395   1_545  A
C1913      C1914   1.408       .  A
C1913      H1917   1.084       .  S
C1915      H1918   1.083       .  S
O1919      C1935   1.271       .  A
O1919     Zn1925   1.999       .  S
C1920      O1936   1.272   1_545  A
O1921      C1934   1.282       .  A
O1921     Cd1928   2.123       .  S
O1922      C1940   1.272       .  A
O1922     Cd1931   2.027   1_655  S
O1923      C1937   1.272       .  A
O1924     Cd1927   2.066       .  S
Zn1925     O1936   2.022       .  S
Zn1925     O1938   1.971       .  S
Zn1925     O1930   1.931       .  S
O1926      C1937   1.271       .  A
Cd1928     O1930   2.040       .  S
O1929      C1939   1.272       .  A
Cd1931     O1933   2.041   1_455  S
O1932      C1939   1.283       .  A
C1934      O1938   1.271       .  A
C1934      C2033   1.481       .  S
C1935      C1973   1.465       .  S
C1937      C1955   1.465       .  S
C1939      C2051   1.483       .  S
C1940      O1941   1.282       .  A
C1940      C2069   1.482       .  S
C1942      C1943   1.402       .  A
C1942      C1947   1.409       .  A
C1943      C1944   1.390       .  A
C1943      H1948   1.086       .  S
C1944      C1996   1.467       .  S
C1944      C1945   1.395       .  A
C1945      C1946   1.411       .  A
C1945      H1949   1.084       .  S
C1946      C1953   1.478       .  S
C1946      C1947   1.412       .  A
C1947      H1950   1.083       .  S
C1951      C2094   1.470       .  S
C1951      C1952   1.409       .  A
C1951      C1956   1.398       .  A
C1952      C1953   1.414       .  A
C1952      H1957   1.083       .  S
C1953      C1954   1.408       .  A
C1954      C1955   1.395       .  A
C1954      H1958   1.084       .  S
C1955      C1956   1.392       .  A
C1956      H1959   1.086       .  S
C1960      C1961   1.402       .  A
C1960      C1965   1.410       .  A
C1961      H1966   1.086       .  S
C1962      C1979   1.467       .  S
C1962      C1963   1.395   1_455  A
C1963      C1964   1.411   1_655  A
C1963      H1967   1.084       .  S
C1964      C1969   1.480   1_455  S
C1965      H1968   1.083       .  S
C1969      C1970   1.414       .  A
C1970      C1971   1.410       .  A
C1970      H1975   1.083       .  S
C1971      C2079   1.471       .  S
C1971      C1972   1.398       .  A
C1972      C1973   1.392       .  A
C1972      H1976   1.086       .  S
C1974      H1977   1.084       .  S
O1978      C1994   1.272       .  A
O1978     Zn1984   2.011       .  S
C1979      O1995   1.274   1_455  A
O1980      C1993   1.279       .  A
O1980     Cd1987   2.108       .  S
O1981      C1999   1.275       .  A
O1982      C1996   1.272       .  A
O1983     Cd1986   2.070       .  S
Zn1984     O1995   2.032       .  S
Zn1984     O1997   1.991       .  S
Zn1984     O1989   1.934       .  S
O1985      C1996   1.273       .  A
Cd1987     O1989   2.041       .  S
O1988      C1998   1.274       .  A
Cd1990     O1992   2.051   1_545  S
O1991      C1998   1.280       .  A
C1993      O1997   1.274       .  A
C1999      O2000   1.280       .  A
O2001      C2017   1.273       .  A
O2001     Zn2007   2.030       .  S
C2002      O2018   1.272       .  A
C2002      O2015   1.271       .  A
C2002      C2044   1.468       .  S
O2003      C2016   1.280       .  A
O2003     Cd2010   2.117       .  S
O2004      C2022   1.273       .  A
O2004     Cd2013   2.032   1_556  S
O2005      C2019   1.272       .  A
O2005     Cd2009   2.072       .  S
O2006      C2017   1.271       .  A
O2006     Cd2009   2.049       .  S
Zn2007     O2018   2.010       .  S
Zn2007     O2020   1.984   1_554  S
Zn2007     O2012   1.932   1_554  S
O2008      C2019   1.271       .  A
O2008     Cd2013   2.053       .  S
Cd2009     O2011   2.039   1_554  S
Cd2009     O2012   1.983   1_554  S
Cd2010     O2014   2.124       .  S
Cd2010     O2023   2.119       .  S
Cd2010     O2012   2.040       .  S
O2011      C2021   1.274       .  A
O2012     Cd2013   1.984   1_556  S
Cd2013     O2015   2.068       .  S
O2014      C2021   1.281       .  A
C2016      O2020   1.274       .  A
C2016      C2151   1.480       .  S
C2017      C2062   1.467       .  S
C2019      C2026   1.466       .  S
C2021      C2169   1.481       .  S
C2022      O2023   1.281       .  A
C2022      C2133   1.477       .  S
C2024      C2121   1.478       .  S
C2024      C2025   1.403       .  A
C2024      C2029   1.409       .  A
C2025      C2026   1.391       .  A
C2025      H2030   1.086       .  S
C2026      C2027   1.394       .  A
C2027      C2028   1.408       .  A
C2027      H2031   1.084       .  S
C2028      C2037   1.477       .  S
C2028      C2029   1.416       .  A
C2029      H2032   1.083       .  S
C2033      C2034   1.408       .  A
C2033      C2038   1.408       .  A
C2034      C2035   1.397       .  A
C2034      H2039   1.085       .  S
C2035      C2093   1.478       .  S
C2035      C2036   1.397       .  A
C2036      C2037   1.408       .  A
C2036      H2040   1.084       .  S
C2037      C2038   1.411       .  A
C2038      H2041   1.083       .  S
C2042      C2116   1.480       .  S
C2042      C2043   1.404       .  A
C2042      C2047   1.410       .  A
C2043      H2048   1.086       .  S
C2044      C2045   1.395       .  A
C2045      C2046   1.408       .  A
C2045      H2049   1.084       .  S
C2046      C2053   1.479       .  S
C2047      H2050   1.083       .  S
C2051      C2056   1.408       .  A
C2052      H2057   1.083   1_545  S
C2053      C2054   1.409       .  A
C2054      C2055   1.397       .  A
C2054      H2058   1.084       .  S
C2055      C2098   1.479       .  S
C2055      C2056   1.395       .  A
C2056      H2059   1.085       .  S
C2060      C2122   1.481       .  S
C2060      C2065   1.411       .  A
C2061      C2062   1.392       .  A
C2061      H2066   1.086   1_655  S
C2062      C2063   1.395       .  A
C2063      C2064   1.408       .  A
C2063      H2067   1.084       .  S
C2064      C2073   1.480       .  S
C2065      H2068   1.083       .  S
C2069      C2070   1.407       .  A
C2070      C2071   1.395       .  A
C2070      H2075   1.085       .  S
C2071      C2099   1.479       .  S
C2071      C2072   1.398       .  A
C2072      C2073   1.410       .  A
C2072      H2076   1.084       .  S
C2074      H2077   1.083       .  S
O2078      C2094   1.276       .  A
O2078     Zn2084   2.046       .  S
C2079      O2095   1.274       .  A
C2079      O2092   1.275       .  A
O2080      C2093   1.274       .  A
O2080     Cd2087   2.071       .  S
O2081      C2099   1.277       .  A
O2081     Cd2090   2.080       .  S
O2082      C2096   1.275       .  A
O2082     Cd2086   2.085       .  S
O2083      C2094   1.274       .  A
O2083     Cd2086   2.051       .  S
Zn2084     O2095   2.005       .  S
Zn2084     O2097   2.028       .  S
Zn2084     O2089   1.945       .  S
O2085      C2096   1.275       .  A
O2085     Cd2090   2.058       .  S
Cd2086     O2088   2.078       .  S
Cd2086     O2089   1.998       .  S
Cd2087     O2091   2.074       .  S
Cd2087     O2100   2.075       .  S
Cd2087     O2089   2.016       .  S
O2088      C2098   1.277       .  A
O2089     Cd2090   1.998       .  S
Cd2090     O2092   2.090       .  S
O2091      C2098   1.275       .  A
C2093      O2097   1.276       .  A
C2099      O2100   1.275       .  A
O2101      C2117   1.272       .  A
O2101     Zn2107   2.006       .  S
C2102      O2118   1.273       .  A
C2102      O2115   1.271       .  A
C2102      C2173   1.466       .  S
O2103      C2116   1.281       .  A
O2103     Cd2110   2.120       .  S
O2104      C2122   1.274       .  A
O2104     Cd2113   2.039   1_554  S
O2105      C2119   1.271       .  A
O2105     Cd2109   2.052       .  S
O2106      C2117   1.270       .  A
O2106     Cd2109   2.063       .  S
Zn2107     O2118   2.028       .  S
Zn2107     O2120   1.981   1_556  S
Zn2107     O2112   1.931   1_556  S
O2108      C2119   1.272       .  A
O2108     Cd2113   2.070       .  S
Cd2109     O2111   2.031   1_556  S
Cd2109     O2112   1.982   1_556  S
Cd2110     O2114   2.123       .  S
Cd2110     O2123   2.124       .  S
Cd2110     O2112   2.039       .  S
O2111      C2121   1.273       .  A
O2112     Cd2113   1.983   1_554  S
Cd2113     O2115   2.047       .  S
O2114      C2121   1.282       .  A
C2116      O2120   1.273       .  A
C2117      C2153   1.465       .  S
C2119      C2135   1.465       .  S
C2122      O2123   1.282       .  A
C2124      C2293   1.480       .  S
C2124      C2125   1.409       .  A
C2124      C2129   1.407       .  A
C2125      C2126   1.396       .  A
C2125      H2130   1.085       .  S
C2126      C2179   1.478       .  S
C2126      C2127   1.398       .  A
C2127      C2128   1.408       .  A
C2127      H2131   1.084       .  S
C2128      C2137   1.476       .  S
C2128      C2129   1.410       .  A
C2129      H2132   1.083       .  S
C2133      C2134   1.403       .  A
C2133      C2138   1.409       .  A
C2134      C2135   1.391       .  A
C2134      H2139   1.086       .  S
C2135      C2136   1.394       .  A
C2136      C2137   1.407       .  A
C2136      H2140   1.084       .  S
C2137      C2138   1.415       .  A
C2138      H2141   1.083       .  S
C2142      C2299   1.482       .  S
C2142      C2143   1.409       .  A
C2143      C2144   1.395       .  A
C2143      H2148   1.085       .  S
C2144      C2196   1.480       .  S
C2144      C2145   1.398       .  A
C2145      C2146   1.410       .  A
C2145      H2149   1.084       .  S
C2146      C2155   1.479       .  S
C2147      H2150   1.083       .  S
C2151      C2156   1.411       .  A
C2152      C2153   1.391       .  A
C2153      C2154   1.394       .  A
C2154      C2155   1.407       .  A
C2154      H2158   1.084       .  S
C2156      H2159   1.083       .  S
C2160      C2298   1.481       .  S
C2160      C2165   1.407       .  A
C2161      C2162   1.396       .  A
C2161      H2166   1.085       .  S
C2162      C2199   1.481       .  S
C2162      C2163   1.400       .  A
C2163      H2167   1.084       .  S
C2164      C2165   1.412       .  A
C2165      H2168   1.083   1_455  S
C2169      C2170   1.411       .  A
C2169      C2174   1.403       .  A
C2170      H2175   1.083       .  S
C2171      C2172   1.407       .  A
C2172      C2173   1.394       .  A
C2172      H2176   1.084       .  S
C2174      H2177   1.086       .  S
O2178      C2194   1.276       .  A
O2178     Zn2184   2.049       .  S
C2179      O2195   1.277       .  A
C2179      O2192   1.274       .  A
O2180      C2193   1.276       .  A
O2180     Cd2187   2.091       .  S
O2181      C2199   1.275       .  A
O2181     Cd2190   2.073       .  S
O2182      C2196   1.277       .  A
O2182     Cd2186   2.083       .  S
O2183      C2194   1.274       .  A
O2183     Cd2186   2.053       .  S
Zn2184     O2195   2.035       .  S
Zn2184     O2197   2.008       .  S
Zn2184     O2189   1.948       .  S
O2185      C2196   1.274       .  A
O2185     Cd2190   2.073       .  S
Cd2186     O2188   2.091       .  S
Cd2186     O2189   1.998       .  S
Cd2187     O2191   2.061       .  S
Cd2187     O2200   2.085       .  S
Cd2187     O2189   2.000       .  S
O2188      C2198   1.276       .  A
O2189     Cd2190   2.015       .  S
Cd2190     O2192   2.067       .  S
O2191      C2198   1.275       .  A
C2193      O2197   1.275       .  A
C2193      C2210   1.472       .  S
C2194      C2242   1.470       .  S
C2198      C2260   1.471       .  S
C2199      O2200   1.278       .  A
C2201      C2399   1.479       .  S
C2201      C2202   1.407       .  A
C2201      C2206   1.407       .  A
C2202      C2203   1.395       .  A
C2202      H2207   1.085       .  S
C2203      C2240   1.480       .  S
C2204      C2205   1.411       .  A
C2204      H2208   1.084       .  S
C2205      C2214   1.479       .  S
C2206      H2209   1.083       .  S
C2210      C2211   1.398       .  A
C2210      C2215   1.410       .  A
C2211      C2212   1.392       .  A
C2211      H2216   1.086       .  S
C2212      C2279   1.461       .  S
C2213      H2217   1.084       .  S
C2214      C2215   1.415       .  A
C2215      H2218   1.083       .  S
O2219      C2235   1.276       .  A
C2220      O2236   1.275       .  A
C2220      O2233   1.275       .  A
C2220      C2335   1.471       .  S
O2221      C2234   1.275       .  A
O2221     Cd2228   2.076       .  S
O2222      C2240   1.277       .  A
O2222     Cd2231   2.081   1_655  S
O2223      C2237   1.275   1_565  A
O2223     Cd2227   2.091       .  S
O2224     Cd2227   2.051       .  S
Zn2225     O2236   2.005       .  S
Zn2225     O2238   2.032       .  S
Zn2225     O2230   1.945       .  S
O2226     Cd2231   2.059   1_655  S
Cd2227     O2229   2.078       .  S
Cd2228     O2230   2.018       .  S
O2229      C2239   1.277       .  A
O2232      C2239   1.275       .  A
C2234      O2238   1.277       .  A
C2237      C2369   1.472       .  S
C2239      C2253   1.480       .  S
C2240      O2241   1.275       .  A
C2242      C2243   1.397       .  A
C2242      C2247   1.409       .  A
C2243      C2244   1.391       .  A
C2243      H2248   1.086       .  S
C2244      C2296   1.461       .  S
C2244      C2245   1.395       .  A
C2245      C2246   1.406       .  A
C2245      H2249   1.084       .  S
C2246      C2255   1.479       .  S
C2246      C2247   1.416       .  A
C2247      H2250   1.083       .  S
C2251      C2398   1.477       .  S
C2251      C2252   1.406       .  A
C2251      C2256   1.407       .  A
C2252      C2253   1.395       .  A
C2252      H2257   1.085       .  S
C2253      C2254   1.400       .  A
C2254      C2255   1.411       .  A
C2254      H2258   1.084       .  S
C2255      C2256   1.410       .  A
C2256      H2259   1.083       .  S
C2260      C2261   1.397       .  A
C2260      C2265   1.409       .  A
C2261      H2266   1.086       .  S
C2262      C2294   1.461       .  S
C2262      C2263   1.395       .  A
C2263      C2264   1.407       .  A
C2263      H2267   1.084       .  S
C2265      H2268   1.083       .  S
C2269      C2274   1.400       .  A
C2270      C2271   1.407       .  A
C2270      H2275   1.085       .  S
C2271      C2393   1.479       .  S
C2271      C2272   1.407       .  A
C2272      H2276   1.083       .  S
C2273      C2274   1.411       .  A
C2274      H2277   1.084   1_545  S
O2278      C2294   1.271       .  A
O2278     Zn2284   2.016       .  S
C2279      O2295   1.270       .  A
O2280      C2293   1.283       .  A
O2280     Cd2287   2.126       .  S
O2281      C2299   1.271   1_545  A
O2282      C2296   1.270       .  A
O2283     Cd2286   2.039       .  S
Zn2284     O2295   1.992       .  S
Zn2284     O2297   1.963       .  S
Zn2284     O2289   1.926       .  S
O2285      C2296   1.271       .  A
Cd2287     O2289   2.036       .  S
O2288      C2298   1.271   1_655  A
Cd2290     O2292   2.056       .  S
O2291      C2298   1.283       .  A
C2293      O2297   1.270       .  A
C2299      O2300   1.284       .  A
O2301      C2317   1.273       .  A
O2301     Zn2307   2.013       .  S
C2302      O2318   1.274       .  A
C2302      O2315   1.272       .  A
C2302      C2326   1.468       .  S
O2303      C2316   1.279       .  A
O2303     Cd2310   2.110       .  S
O2304      C2322   1.275       .  A
O2304     Cd2313   2.046       .  S
O2305      C2319   1.272       .  A
O2305     Cd2309   2.057       .  S
O2306      C2317   1.272       .  A
O2306     Cd2309   2.072       .  S
Zn2307     O2318   2.036       .  S
Zn2307     O2320   1.993       .  S
Zn2307     O2312   1.936       .  S
O2308      C2319   1.273       .  A
O2308     Cd2313   2.076       .  S
Cd2309     O2311   2.039       .  S
Cd2309     O2312   1.987       .  S
Cd2310     O2314   2.113       .  S
Cd2310     O2323   2.114       .  S
Cd2310     O2312   2.042       .  S
O2311      C2321   1.274       .  A
O2312     Cd2313   1.986       .  S
Cd2313     O2315   2.051       .  S
O2314      C2321   1.280       .  A
C2316      O2320   1.275       .  A
C2317      C2360   1.469       .  S
C2319      C2344   1.468       .  S
C2322      O2323   1.280       .  A
C2324      C2325   1.403       .  A
C2324      C2329   1.410       .  A
C2325      C2326   1.391       .  A
C2325      H2330   1.086       .  S
C2326      C2327   1.395       .  A
C2327      C2328   1.411       .  A
C2327      H2331   1.084       .  S
C2328      C2337   1.480       .  S
C2328      C2329   1.413       .  A
C2329      H2332   1.083       .  S
C2333      C2394   1.464       .  S
C2333      C2334   1.391       .  A
C2333      C2338   1.395       .  A
C2334      C2335   1.397       .  A
C2334      H2339   1.086       .  S
C2335      C2336   1.410       .  A
C2336      C2337   1.414       .  A
C2336      H2340   1.083       .  S
C2337      C2338   1.408       .  A
C2338      H2341   1.084       .  S
C2342      C2343   1.402       .  A
C2342      C2347   1.408       .  A
C2343      H2348   1.086       .  S
C2344      C2345   1.395       .  A
C2345      C2346   1.411       .  A
C2345      H2349   1.084       .  S
C2346      C2353   1.478       .  S
C2347      H2350   1.083       .  S
C2351      C2356   1.397       .  A
C2352      H2357   1.083       .  S
C2353      C2354   1.407       .  A
C2354      C2355   1.394       .  A
C2354      H2358   1.084       .  S
C2355      C2396   1.462       .  S
C2355      C2356   1.391       .  A
C2356      H2359   1.086       .  S
C2360      C2361   1.391       .  A
C2360      C2365   1.396       .  A
C2361      H2366   1.086       .  S
C2362      C2363   1.409       .  A
C2363      H2367   1.083       .  S
C2364      C2365   1.411       .  A
C2365      H2368   1.084       .  S
C2369      C2374   1.410   1_545  A
C2370      C2371   1.392       .  A
C2370      H2375   1.086       .  S
C2371      C2379   1.463       .  S
C2371      C2372   1.394       .  A
C2372      H2376   1.084       .  S
C2373      C2374   1.415   1_545  A
C2374      H2377   1.083       .  S
O2378      C2394   1.272       .  A
O2378     Zn2384   1.998       .  S
C2379      O2395   1.272       .  A
C2379      O2392   1.270       .  A
O2380      C2393   1.280       .  A
O2380     Cd2387   2.111       .  S
O2381      C2399   1.271       .  A
O2381     Cd2390   2.025       .  S
O2382      C2396   1.271       .  A
O2382     Cd2386   2.049       .  S
O2383      C2394   1.270       .  A
O2383     Cd2386   2.062       .  S
Zn2384     O2395   2.024       .  S
Zn2384     O2397   1.977       .  S
Zn2384     O2389   1.929       .  S
O2385      C2396   1.270       .  A
O2385     Cd2390   2.060       .  S
Cd2386     O2388   2.028       .  S
Cd2386     O2389   1.981       .  S
Cd2387     O2391   2.115       .  S
Cd2387     O2400   2.119       .  S
Cd2387     O2389   2.032       .  S
O2388      C2398   1.272       .  A
O2389     Cd2390   1.978       .  S
Cd2390     O2392   2.038       .  S
O2391      C2398   1.281       .  A
C2393      O2397   1.272       .  A
C2399      O2400   1.281       .  A
