geometry optimzed in LAMMPS
_audit_creation_date              2020-12-01 
_audit_creation_method            'lammps2cif' 
_symmetry_space_group_name_H-M    'P1' 
_symmetry_Int_Tables_number       1 
_symmetry_cell_setting            triclinic 
loop_ 
_symmetry_equiv_pos_as_xyz 
  x,y,z 
_cell_length_a                    29.32877123 
_cell_length_b                    29.518188892505528 
_cell_length_c                    29.415538155887752 
_cell_angle_alpha                 89.87508363933023 
_cell_angle_beta                  89.65464344157323 
_cell_angle_gamma                 89.73611865521659 
loop_ 
_atom_site_label 
_atom_site_type_symbol 
_atom_site_fract_x 
_atom_site_fract_y 
_atom_site_fract_z 
_atom_site_charge 
N1          N  0.60643345  0.55175594  0.92695431    -0.06400
N2          N  0.63495483  0.55661772  0.89245114    -0.58500
N3          N  0.57139111  0.58436472  0.03124679    -0.06100
N4          N  0.57439213  0.61135305  0.06687531    -0.60700
N5          N  0.60332452  0.55295094  0.03216141    -0.05700
N6          N  0.62878344  0.55812304  0.06862608    -0.58500
N7          N  0.57498684  0.58363581  0.92658223    -0.05400
N8          N  0.58166486  0.61118720  0.89195172    -0.61000
C9          C  0.61892389  0.59374580  0.87088856     0.95800
C10         C  0.61036988  0.59465465  0.09004342     0.95500
N11         N  0.43398476  0.55311849  0.02949551    -0.06600
N12         N  0.40462114  0.56029194  0.06298069    -0.59100
N13         N  0.46740124  0.58497943  0.92496493    -0.04700
N14         N  0.46165964  0.61324584  0.89067576    -0.60400
N15         N  0.43540995  0.55396881  0.92503256    -0.06600
N16         N  0.40732555  0.56037957  0.89068390    -0.59400
N17         N  0.46555931  0.58457722  0.02905319    -0.04400
N18         N  0.45845233  0.61379166  0.06207330    -0.60400
Mn19       Mn  0.52001628  0.58598417  0.97776627     1.18400
C20         C  0.42050233  0.59826331  0.08304556     0.97900
C21         C  0.42399829  0.59758076  0.86953225     0.98500
N22         N  0.60563961  0.44609203  0.03062886    -0.06600
N23         N  0.63481315  0.43911196  0.06387753    -0.62900
N24         N  0.57556884  0.41417194  0.92656874    -0.05400
N25         N  0.58296912  0.38453343  0.89374115    -0.63600
N26         N  0.60723413  0.44555371  0.92653428    -0.06100
N27         N  0.63677307  0.43800637  0.89329716    -0.63200
N28         N  0.57381630  0.41484852  0.03067818    -0.05000
N29         N  0.58051318  0.38604071  0.06435662    -0.63900
Mn30       Mn  0.60729881  0.49934842  0.97911452     1.10700
C31         C  0.61882124  0.40147311  0.08454874     0.99100
C32         C  0.62135323  0.39968519  0.87326575     0.99200
N33         N  0.43694020  0.44834038  0.92429670    -0.06200
N34         N  0.41033477  0.44429074  0.88864623    -0.61500
N35         N  0.46592834  0.41530898  0.02838173    -0.05500
N36         N  0.45790293  0.38532379  0.06061207    -0.58300
N37         N  0.43396902  0.44667545  0.02826262    -0.06800
N38         N  0.40347604  0.43864849  0.06041922    -0.61100
N39         N  0.46904383  0.41706655  0.92380420    -0.05800
N40         N  0.46516237  0.39125613  0.88742567    -0.58300
Mn41       Mn  0.43349756  0.50044067  0.97697031     1.20200
Mn42       Mn  0.52091316  0.41384772  0.97753419     1.10100
Cl43       Cl  0.52047509  0.49988473  0.97793375    -0.86300
C44         C  0.42843197  0.40877831  0.86587863     0.96100
C45         C  0.41884103  0.40017024  0.08025782     0.95900
N46         N  0.46382313  0.95679173  0.39365746    -0.06400
N47         N  0.45678321  0.92373522  0.36454949    -0.58500
N48         N  0.43534638  0.06025907  0.43045824    -0.06100
N49         N  0.41008093  0.09726510  0.42874593    -0.60700
N50         N  0.46657182  0.06104443  0.39820406    -0.05700
N51         N  0.46342231  0.09858655  0.37404147    -0.58500
N52         N  0.43324577  0.95565628  0.42644459    -0.05400
N53         N  0.40486888  0.92162032  0.42058904    -0.61000
C54         C  0.42009145  0.90197066  0.38190517     0.95800
C55         C  0.42815968  0.12092231  0.39357905     0.95500
N56         N  0.46783675  0.05340355  0.56782412    -0.06600
N57         N  0.46298547  0.08745834  0.59652557    -0.59100
N58         N  0.43725861  0.95061880  0.53182485    -0.04700
N59         N  0.41311783  0.91317793  0.53382455    -0.60400
N60         N  0.46964553  0.94951919  0.56244757    -0.06600
N61         N  0.46846110  0.91145671  0.58586341    -0.59400
N62         N  0.43619767  0.05500780  0.53643902    -0.04400
N63         N  0.40930400  0.09028499  0.54275823    -0.60400
Mn64       Mn  0.43350077  0.00543679  0.48134055     1.18400
C65         C  0.42615427  0.10995513  0.58046498     0.97900
C66         C  0.43306920  0.88913939  0.56760381     0.98500
N67         N  0.57209695  0.05857542  0.39400380    -0.06600
N68         N  0.57764698  0.09374925  0.36686704    -0.62900
N69         N  0.60258290  0.95359264  0.42127020    -0.05400
N70         N  0.62899587  0.91794965  0.41497395    -0.63600
N71         N  0.57017511  0.95454172  0.39059923    -0.06100
N72         N  0.57388521  0.91956942  0.36278726    -0.63200
N73         N  0.60362138  0.05787590  0.42555808    -0.05000
N74         N  0.63122224  0.09268754  0.42081866    -0.63900
Mn75       Mn  0.51802565  0.00771395  0.39229879     1.10700
C76         C  0.61473600  0.11450653  0.38393404     0.99100
C77         C  0.61084675  0.89696732  0.37844928     0.99200
N78         N  0.57416533  0.94954510  0.55956355    -0.06200
N79         N  0.57909050  0.91369352  0.58556774    -0.61500
N80         N  0.60511322  0.05388453  0.53262888    -0.05500
N81         N  0.63350156  0.08745683  0.54002443    -0.58300
N82         N  0.57379650  0.05285510  0.56476804    -0.06800
N83         N  0.58004401  0.08551476  0.59458367    -0.61100
N84         N  0.60505760  0.94966448  0.52707253    -0.05800
N85         N  0.63183971  0.91369784  0.53025214    -0.58300
Mn86       Mn  0.52134903  0.00146031  0.56533471     1.20200
Mn87       Mn  0.60603177  0.00391203  0.47655771     1.10100
Cl88       Cl  0.51976560  0.00477340  0.47884611    -0.86300
C89         C  0.61496106  0.89159949  0.56693197     0.96100
C90         C  0.61741540  0.10691810  0.57866848     0.95900
N91         N  0.96954067  0.56504123  0.39831862    -0.06400
N92         N  0.93407864  0.57124398  0.37199514    -0.58500
N93         N  0.07420979  0.59475812  0.42681608    -0.06100
N94         N  0.10647599  0.62488813  0.41900127    -0.60700
N95         N  0.07365221  0.56411794  0.39443284    -0.05700
N96         N  0.10573582  0.57264302  0.36400011    -0.58500
N97         N  0.96985678  0.59519585  0.43112981    -0.05400
N98         N  0.93431684  0.62266117  0.42788339    -0.61000
C99         C  0.91240245  0.60708749  0.39078489     0.95800
C100        C  0.12587808  0.61068045  0.37971480     0.95500
N101        N  0.07725692  0.55546966  0.56415036    -0.06600
N102        N  0.11366974  0.55734844  0.59008670    -0.59100
N103        N  0.97276615  0.59061943  0.53681872    -0.04700
N104        N  0.93773979  0.61794587  0.54324107    -0.60400
N105        N  0.97261726  0.55799139  0.56725058    -0.06600
N106        N  0.93741497  0.56244879  0.59508184    -0.59400
N107        N  0.07779608  0.58796191  0.53352845    -0.04400
N108        N  0.11487955  0.61258055  0.53783257    -0.60400
Mn109      Mn  0.02380091  0.59389149  0.48232174     1.18400
C110        C  0.13669048  0.59323597  0.57343202     0.97900
C111        C  0.91598179  0.60011167  0.57971686     0.98500
N112        N  0.07201883  0.45700517  0.39220480    -0.06600
N113        N  0.10808282  0.45247893  0.36562820    -0.62900
N114        N  0.96642617  0.42740849  0.42428705    -0.05400
N115        N  0.93084997  0.40093674  0.41869331    -0.63600
N116        N  0.96646568  0.45994466  0.39369149    -0.06100
N117        N  0.93059505  0.45646740  0.36683871    -0.63200
N118        N  0.07122946  0.42453143  0.42283608    -0.05000
N119        N  0.10667612  0.39744165  0.41809696    -0.63900
Mn120      Mn  0.02064465  0.51142467  0.39284295     1.10700
C121        C  0.12936614  0.41529580  0.38240936     0.99100
C122        C  0.90863293  0.41945525  0.38294852     0.99200
N123        N  0.97143644  0.45263090  0.56417568    -0.06200
N124        N  0.93923662  0.44483483  0.59463505    -0.61500
N125        N  0.07368951  0.41934818  0.52812037    -0.07300
N126        N  0.10789766  0.39033763  0.53219703    -0.58300
N127        N  0.07545727  0.45025361  0.56015988    -0.06800
N128        N  0.11102379  0.44335064  0.58643454    -0.61100
N129        N  0.96966698  0.42294808  0.53104010    -0.05800
N130        N  0.93620649  0.39430651  0.53800691    -0.58300
Mn131      Mn  0.02417599  0.50420291  0.56552529     1.20200
Mn132      Mn  0.01998941  0.42194121  0.47626602     1.10100
Cl133      Cl  0.02222218  0.50787643  0.47914251    -0.86300
C134        C  0.91769544  0.40829330  0.57774576     0.96100
C135        C  0.13075833  0.40581605  0.56882117     0.95900
C136        C  0.74697224  0.33502307  0.31021720     0.79900
N137        N  0.72739119  0.35218737  0.27206106    -0.78400
C138        C  0.68811763  0.33457078  0.25559255     0.82400
N139        N  0.66860490  0.29943264  0.27770451    -0.78300
C140        C  0.68753810  0.28195568  0.31593929     0.82500
N141        N  0.72693029  0.29964369  0.33207442    -0.80000
C142        C  0.75119282  0.67774034  0.30554729     0.79900
N143        N  0.73113999  0.71510734  0.32349625    -0.78400
C144        C  0.69216497  0.73215114  0.30604984     0.82400
N145        N  0.67283330  0.71068425  0.27014387    -0.78300
C146        C  0.69221976  0.67284906  0.25161597     0.82500
N147        N  0.73166319  0.65660173  0.26961430    -0.80000
C148        C  0.70330313  0.32250746  0.71061389     0.79900
N149        N  0.73923205  0.34210169  0.68955479    -0.78400
C150        C  0.75838368  0.32315490  0.65197519     0.82400
N151        N  0.74156908  0.28377537  0.63528910    -0.78300
C152        C  0.70571733  0.26336839  0.65625938     0.82500
N153        N  0.68696449  0.28302150  0.69384921    -0.80000
C154        C  0.33643266  0.75172643  0.28923412     0.79900
N155        N  0.30124063  0.73015473  0.31020645    -0.78400
C156        C  0.28382647  0.69133655  0.29316592     0.82400
N157        N  0.30203517  0.67416015  0.25460349    -0.78300
C158        C  0.33733137  0.69496552  0.23294978     0.82500
N159        N  0.35466227  0.73386978  0.25050530    -0.80000
C160        C  0.36029143  0.72219175  0.63673737     0.79900
N161        N  0.37750177  0.70679421  0.67680790    -0.78400
C162        C  0.36076713  0.66887121  0.69662301     0.82400
N163        N  0.32652988  0.64643805  0.67561878    -0.78300
C164        C  0.30910026  0.66112734  0.63548952     0.82500
N165        N  0.32599874  0.69935745  0.61627418    -0.80000
C166        C  0.34660804  0.33153449  0.70646685     0.79900
N167        N  0.30959453  0.34990595  0.68606664    -0.78400
C168        C  0.29446194  0.33267888  0.64613552     0.82400
N169        N  0.31607802  0.29680234  0.62683051    -0.78300
C170        C  0.35320393  0.27842980  0.64689991     0.82500
N171        N  0.36819385  0.29587317  0.68667267    -0.80000
C172        C  0.69761744  0.68217633  0.71455858     0.79900
N173        N  0.67711790  0.71885063  0.69542312    -0.78400
C174        C  0.69388911  0.73656755  0.65603830     0.82400
N175        N  0.73110406  0.71738500  0.63611172    -0.78300
C176        C  0.75181922  0.68093913  0.65481161     0.82500
N177        N  0.73457188  0.66342900  0.69389833    -0.80000
C178        C  0.34368076  0.27442615  0.30792802     0.79900
N179        N  0.36175252  0.28764265  0.26735437    -0.78400
C180        C  0.34237917  0.32191702  0.24342213     0.82400
N181        N  0.30511032  0.34334863  0.26085983    -0.78300
C182        C  0.28691873  0.33063146  0.30119043     0.82500
N183        N  0.30644169  0.29603234  0.32447219    -0.80000
C184        C  0.20648284  0.41577618  0.60367986    -0.12600
C185        C  0.17329971  0.38623660  0.58655490     0.04500
C186        C  0.18120788  0.33905371  0.58787865    -0.07800
C187        C  0.22150412  0.32235162  0.60664163    -0.08600
C188        C  0.25403684  0.35183751  0.62436297    -0.03100
C189        C  0.24692526  0.39889286  0.62215514     0.03700
N190        N  0.28128334  0.42966503  0.63700076     0.66200
H191        H  0.20125809  0.45215126  0.60212727     0.15100
H192        H  0.22665198  0.28609593  0.60877928     0.14800
N193        N  0.14758584  0.30734133  0.57364739     0.73900
O194        O  0.31875489  0.43166862  0.61576728    -0.39600
O195        O  0.27779510  0.44776128  0.67568688    -0.39500
O196        O  0.15471978  0.28488812  0.53784428    -0.40200
O197        O  0.12008181  0.29194492  0.60292943    -0.40300
C198        C  0.21046051  0.62969206  0.55846124    -0.12600
C199        C  0.18179697  0.60746143  0.58932975     0.04500
C200        C  0.19722240  0.59900160  0.63383750    -0.07800
C201        C  0.23968033  0.61518411  0.64729833    -0.08600
C202        C  0.26783816  0.63926569  0.61696729    -0.03100
C203        C  0.25344566  0.64487050  0.57147251     0.03700
N204        N  0.28213795  0.66399973  0.53715466     0.66200
H205        H  0.19991988  0.63461832  0.52378016     0.15100
H206        H  0.24964403  0.61016283  0.68211285     0.14800
N207        N  0.16969473  0.57600492  0.66670818     0.73900
O208        O  0.30995289  0.63819642  0.51687127    -0.39600
O209        O  0.26845948  0.69910228  0.51681161    -0.39500
O210        O  0.17900377  0.53533767  0.67635422    -0.40200
O211        O  0.14622421  0.59910936  0.69436620    -0.40300
C212        C  0.21480694  0.69654295  0.34184563    -0.12600
C213        C  0.24423937  0.66932504  0.31566671     0.04500
C214        C  0.23409477  0.62267581  0.31101584    -0.07800
C215        C  0.19504417  0.60481825  0.33174614    -0.08600
C216        C  0.16579094  0.63213272  0.35780087    -0.03100
C217        C  0.17592275  0.67854143  0.36270965     0.03700
N218        N  0.14622898  0.70868106  0.38677291     0.66200
H219        H  0.22128334  0.73223194  0.34544930     0.15100
H220        H  0.18819294  0.56918504  0.32813366     0.14800
N221        N  0.26344462  0.59213069  0.28701840     0.73900
O222        O  0.15592943  0.71933971  0.42707428    -0.39600
O223        O  0.11992912  0.73411442  0.36433576    -0.39500
O224        O  0.29006855  0.56720140  0.30964878    -0.40200
O225        O  0.25199983  0.57958214  0.24774625    -0.40300
C226        C  0.18173217  0.40526043  0.31756195    -0.12600
C227        C  0.17116111  0.39572433  0.36303335     0.04500
C228        C  0.19976011  0.36659789  0.38812558    -0.07800
C229        C  0.23741647  0.34678493  0.36713192    -0.08600
C230        C  0.24733099  0.35473913  0.32105861    -0.03100
C231        C  0.21919452  0.38494930  0.29623122     0.03700
N232        N  0.22647690  0.39445044  0.24911116     0.66200
H233        H  0.16009960  0.42736225  0.29795508     0.15100
H234        H  0.25872937  0.32496692  0.38732650     0.14800
N235        N  0.19180629  0.35677019  0.43508423     0.73900
O236        O  0.20370413  0.37280502  0.22016158    -0.39600
O237        O  0.24299985  0.43232068  0.23799386    -0.39500
O238        O  0.17477295  0.31898791  0.44564933    -0.40200
O239        O  0.21407980  0.37816848  0.46460232    -0.40300
C240        C  0.85550317  0.65864847  0.57874730    -0.12600
C241        C  0.87360531  0.61953111  0.59906298     0.04500
C242        C  0.85085599  0.60061209  0.63688503    -0.07800
C243        C  0.81099597  0.62076537  0.65343499    -0.08600
C244        C  0.79306806  0.66035581  0.63366639    -0.03100
C245        C  0.81587645  0.67922099  0.59551883     0.03700
N246        N  0.80065640  0.71982359  0.57372256     0.66200
H247        H  0.87231830  0.67389153  0.54996404     0.15100
H248        H  0.79450444  0.60528440  0.68229124     0.14800
N249        N  0.86736692  0.56104160  0.65943807     0.73900
O250        O  0.81994944  0.75665708  0.58341254    -0.39600
O251        O  0.77963317  0.71679424  0.53655485    -0.39500
O252        O  0.88813192  0.56545451  0.69661068    -0.40200
O253        O  0.84961237  0.52339189  0.65007513    -0.40300
C254        C  0.82880347  0.36686965  0.66143935    -0.12600
C255        C  0.79900420  0.34438627  0.63195678     0.04500
C256        C  0.80903470  0.34325190  0.58503251    -0.07800
C257        C  0.84807603  0.36443032  0.56868639    -0.08600
C258        C  0.87749762  0.38710221  0.59802224    -0.03100
C259        C  0.86780646  0.38827040  0.64493950     0.03700
N260        N  0.89774441  0.40910711  0.67673376     0.66200
H261        H  0.82225088  0.36738743  0.69751129     0.15100
H262        H  0.85482225  0.36374024  0.53263604     0.14800
N263        N  0.77992244  0.32218568  0.55277459     0.73900
O264        O  0.88713518  0.44738804  0.69265258    -0.39600
O265        O  0.92511252  0.38438561  0.69866734    -0.39500
O266        O  0.74879564  0.34576144  0.53491543    -0.40200
O267        O  0.79567397  0.28895127  0.53078263    -0.40300
C268        C  0.86048040  0.35253699  0.36961572    -0.12600
C269        C  0.86734240  0.39909464  0.36290338     0.04500
C270        C  0.83493636  0.42400950  0.33767114    -0.07800
C271        C  0.79635727  0.40218632  0.32056364    -0.08600
C272        C  0.78924651  0.35566616  0.32784558    -0.03100
C273        C  0.82232095  0.33063050  0.35204924     0.03700
N274        N  0.81951290  0.28257570  0.35711403     0.66200
H275        H  0.88532035  0.33266006  0.38777266     0.15100
H276        H  0.77149346  0.42200236  0.30236442     0.14800
N277        N  0.83919609  0.47170254  0.33055278     0.73900
O278        O  0.83982331  0.25778807  0.32847455    -0.39600
O279        O  0.81021372  0.26638068  0.39576490    -0.39500
O280        O  0.85122622  0.48588094  0.29181828    -0.40200
O281        O  0.81836758  0.49836381  0.35705008    -0.40300
C282        C  0.86550204  0.62053214  0.32394977    -0.12600
C283        C  0.87155197  0.62725018  0.37052896     0.04500
C284        C  0.83840723  0.65144484  0.39546503    -0.07800
C285        C  0.79932815  0.66725149  0.37347310    -0.08600
C286        C  0.79310184  0.66013528  0.32663722    -0.03100
C287        C  0.82715208  0.63701321  0.30178406     0.03700
N288        N  0.82494782  0.63091016  0.25381356     0.66200
H289        H  0.89111295  0.60309427  0.30419268     0.15100
H290        H  0.77372255  0.68462245  0.39324145     0.14800
N291        N  0.84291450  0.65944557  0.44307425     0.73900
O292        O  0.83768640  0.66300744  0.22839733    -0.39600
O293        O  0.82710551  0.59097406  0.23873577    -0.39500
O294        O  0.85514190  0.69817838  0.45619550    -0.40200
O295        O  0.82236370  0.63376939  0.47066562    -0.40300
C296        C  0.68288439  0.15771373  0.58538159    -0.12600
C297        C  0.63945181  0.14576275  0.60082460     0.04500
C298        C  0.61907231  0.17114885  0.63617798    -0.07800
C299        C  0.64193290  0.20847264  0.65406723    -0.08600
C300        C  0.68520366  0.22136290  0.63772619    -0.03100
C301        C  0.70594938  0.19467065  0.60332609     0.03700
N302        N  0.75023967  0.20370562  0.58535067     0.66200
H303        H  0.69950068  0.13821544  0.55913874     0.15100
H304        H  0.62499038  0.22780798  0.68020822     0.14800
N305        N  0.57493537  0.16064253  0.65397902     0.73900
O306        O  0.78415458  0.18613433  0.60497217    -0.39600
O307        O  0.75338650  0.21231212  0.54343452    -0.39500
O308        O  0.57211757  0.14117024  0.69212122    -0.40200
O309        O  0.54085995  0.18236835  0.63938061    -0.40300
C310        C  0.39338278  0.18563802  0.56688156    -0.12600
C311        C  0.40920961  0.15335952  0.59815084     0.04500
C312        C  0.40843811  0.16341582  0.64488693    -0.07800
C313        C  0.39100375  0.20492505  0.65964341    -0.08600
C314        C  0.37439747  0.23700653  0.62854261    -0.03100
C315        C  0.37641333  0.22744209  0.58156013     0.03700
N316        N  0.36385847  0.26029603  0.54806760     0.66200
H317        H  0.39493190  0.17878441  0.53094131     0.15100
H318        H  0.38917633  0.21135024  0.69563772     0.14800
N319        N  0.42251757  0.13110752  0.67821544     0.73900
O320        O  0.39452447  0.28522415  0.53129683    -0.39600
O321        O  0.32734087  0.25494255  0.52629788    -0.39500
O322        O  0.45979186  0.13711943  0.69846855    -0.40200
O323        O  0.39282964  0.10593853  0.69631907    -0.40300
C324        C  0.36324795  0.17369241  0.38623164    -0.12600
C325        C  0.40895118  0.16368853  0.37626845     0.04500
C326        C  0.43389219  0.19321252  0.34786060    -0.07800
C327        C  0.41191655  0.22952019  0.32688276    -0.08600
C328        C  0.36538629  0.23774555  0.33421386    -0.03100
C329        C  0.34132439  0.21048728  0.36582956     0.03700
N330        N  0.29427299  0.21794229  0.37644165     0.66200
H331        H  0.34383813  0.15200287  0.40849092     0.15100
H332        H  0.43145217  0.25117832  0.30472910     0.14800
N333        N  0.48162757  0.18754630  0.34003066     0.73900
O334        O  0.26458858  0.19536571  0.35558421    -0.39600
O335        O  0.28394353  0.23525077  0.41434708    -0.39500
O336        O  0.49479487  0.17379772  0.30156809    -0.40200
O337        O  0.50911013  0.20933038  0.36445240    -0.40300
C338        C  0.65237117  0.18792032  0.39704210    -0.12600
C339        C  0.63346009  0.15706074  0.36629446     0.04500
C340        C  0.63214708  0.16787541  0.31970400    -0.07800
C341        C  0.64959832  0.20902181  0.30465360    -0.08600
C342        C  0.66844058  0.24009735  0.33518299    -0.03100
C343        C  0.66953913  0.22949202  0.38193920     0.03700
N344        N  0.68516137  0.26125420  0.41489240     0.66200
H345        H  0.65274373  0.18033398  0.43287231     0.15100
H346        H  0.64934255  0.21605716  0.26870545     0.14800
N347        N  0.61581714  0.13663996  0.28659878     0.73900
O348        O  0.65649145  0.28733232  0.43358522    -0.39600
O349        O  0.72271206  0.25406738  0.43435645    -0.39500
O350        O  0.57780813  0.14416662  0.26818658    -0.40200
O351        O  0.64418120  0.11134054  0.26644064    -0.40300
C352        C  0.37207078  0.83310510  0.57240424    -0.12600
C353        C  0.41676913  0.84487838  0.58328134     0.04500
C354        C  0.44341738  0.81501265  0.60974850    -0.07800
C355        C  0.42427648  0.77489507  0.62589653    -0.08600
C356        C  0.37882561  0.76387676  0.61644367    -0.03100
C357        C  0.35273559  0.79332880  0.58885887     0.03700
N358        N  0.30592542  0.78538005  0.57871998     0.66200
H359        H  0.35121204  0.85562348  0.55245481     0.15100
H360        H  0.44513564  0.75242764  0.64589304     0.14800
N361        N  0.49006508  0.82395294  0.62006615     0.73900
O362        O  0.27610189  0.79825177  0.60702218    -0.39600
O363        O  0.29481831  0.78197004  0.53751838    -0.39500
O364        O  0.50004749  0.83679963  0.65965084    -0.40200
O365        O  0.52072143  0.80599741  0.59570011    -0.40300
C366        C  0.62608999  0.84410463  0.63401001    -0.12600
C367        C  0.63486787  0.85097861  0.58772994     0.04500
C368        C  0.66192084  0.81944419  0.56381347    -0.07800
C369        C  0.67986724  0.78203546  0.58677663    -0.08600
C370        C  0.67196005  0.77566609  0.63359102    -0.03100
C371        C  0.64434473  0.80719173  0.65705796     0.03700
N372        N  0.63477342  0.80358073  0.70443427     0.66200
H373        H  0.60573460  0.86801336  0.65297189     0.15100
H374        H  0.69989161  0.75802774  0.56772306     0.14800
N375        N  0.67097489  0.82391212  0.51626248     0.73900
O376        O  0.66123458  0.82285820  0.73191056    -0.39600
O377        O  0.59402158  0.79659471  0.71641534    -0.39500
O378        O  0.70994157  0.83697977  0.50359111    -0.40200
O379        O  0.64660924  0.80224699  0.48866134    -0.40300
C380        C  0.67225113  0.83987220  0.37545240    -0.12600
C381        C  0.62993102  0.85456915  0.35910684     0.04500
C382        C  0.60790875  0.82841636  0.32565210    -0.07800
C383        C  0.62864908  0.78869796  0.30933132    -0.08600
C384        C  0.67135698  0.77410849  0.32546480    -0.03100
C385        C  0.69306120  0.80046978  0.35927118     0.03700
N386        N  0.73668408  0.78894480  0.37747350     0.66200
H387        H  0.68989294  0.85920538  0.40082563     0.15100
H388        H  0.61102450  0.76935757  0.28398372     0.14800
N389        N  0.56432553  0.84085129  0.30800773     0.73900
O390        O  0.77149519  0.80863260  0.36175085    -0.39600
O391        O  0.73853766  0.77176470  0.41674964    -0.39500
O392        O  0.56213642  0.85745624  0.26850960    -0.40200
O393        O  0.52906781  0.82332481  0.32527927    -0.40300
C394        C  0.35347039  0.79453927  0.35932750    -0.12600
C395        C  0.35699694  0.79153727  0.31169603     0.04500
C396        C  0.38062588  0.82587233  0.28788541    -0.07800
C397        C  0.40149768  0.86083939  0.31184269    -0.08600
C398        C  0.39794081  0.86362351  0.35921561    -0.03100
C399        C  0.37308826  0.83038313  0.38307279     0.03700
N400        N  0.36807766  0.83159287  0.43140019     0.66200
H401        H  0.33583020  0.76882141  0.37848577     0.15100
H402        H  0.41929873  0.88673035  0.29304118     0.14800
N403        N  0.38204241  0.82783305  0.23945993     0.73900
O404        O  0.33144788  0.84684209  0.44823800    -0.39600
O405        O  0.39317856  0.80643456  0.45543473    -0.39500
O406        O  0.35049847  0.84880646  0.21923937    -0.40200
O407        O  0.42037780  0.82462319  0.22010410    -0.40300
C408        C  0.69927432  0.37170968  0.18074807    -0.12600
C409        C  0.66935588  0.35086614  0.21176393     0.04500
C410        C  0.62324154  0.34477605  0.19910429    -0.07800
C411        C  0.60802790  0.36077606  0.15706718    -0.08600
C412        C  0.63779294  0.38243660  0.12675801    -0.03100
C413        C  0.68409880  0.38701391  0.13844754     0.03700
N414        N  0.71692218  0.40456171  0.10701635     0.66200
H415        H  0.73487230  0.37526628  0.18872902     0.15100
H416        H  0.57255568  0.35696500  0.14861540     0.14800
N417        N  0.59073699  0.32350477  0.22844653     0.73900
O418        O  0.73107869  0.44451903  0.11208465    -0.39600
O419        O  0.74054575  0.37706943  0.08388512    -0.39500
O420        O  0.56282221  0.34809940  0.25007477    -0.40200
O421        O  0.58079060  0.28256151  0.22147663    -0.40300
C422        C  0.66939646  0.59598983  0.14936354    -0.12600
C423        C  0.62860216  0.61402310  0.13279311     0.04500
C424        C  0.60771288  0.65005688  0.15691123    -0.07800
C425        C  0.62852859  0.66759933  0.19587465    -0.08600
C426        C  0.67045442  0.65050875  0.21167935    -0.03100
C427        C  0.69045357  0.61371009  0.18782305     0.03700
N428        N  0.73355151  0.59493156  0.19963913     0.66200
H429        H  0.68607757  0.56852192  0.13177401     0.15100
H430        H  0.61185150  0.69521214  0.21319876     0.14800
N431        N  0.56557282  0.66979710  0.14273578     0.73900
O432        O  0.73429428  0.55957947  0.22385376    -0.39600
O433        O  0.76666863  0.60255863  0.17316935    -0.39500
O434        O  0.52947755  0.65911235  0.16363632    -0.40200
O435        O  0.56648909  0.70645101  0.12060118    -0.40300
C436        C  0.34782794  0.62639169  0.18630705    -0.12600
C437        C  0.35826441  0.67225980  0.19299290     0.04500
C438        C  0.38872912  0.69336633  0.16229331    -0.07800
C439        C  0.40855785  0.66830999  0.12704117    -0.08600
C440        C  0.39807377  0.62250327  0.12080920    -0.03100
C441        C  0.36686160  0.60181652  0.15059670     0.03700
N442        N  0.35345863  0.55588058  0.14569422     0.66200
H443        H  0.32540356  0.60891093  0.20893612     0.15100
H444        H  0.43173375  0.68512821  0.10417781     0.14800
N445        N  0.40030360  0.74001821  0.16548415     0.73900
O446        O  0.37235772  0.52636607  0.17042820    -0.39600
O447        O  0.31411549  0.54834175  0.13043825    -0.39500
O448        O  0.44108629  0.74977790  0.17452127    -0.40200
O449        O  0.37634486  0.76848405  0.14409395    -0.40300
C450        C  0.42132894  0.34310715  0.14193296    -0.12600
C451        C  0.39707156  0.37748087  0.11940910     0.04500
C452        C  0.35331386  0.38939341  0.13537326    -0.07800
C453        C  0.33646052  0.37005722  0.17514326    -0.08600
C454        C  0.36154350  0.33749143  0.19937139    -0.03100
C455        C  0.40377461  0.32251197  0.18113745     0.03700
N456        N  0.42923144  0.28612084  0.20079707     0.66200
H457        H  0.45413749  0.33223463  0.12944346     0.15100
H458        H  0.30339216  0.38080322  0.18665984     0.14800
N459        N  0.32461094  0.42048441  0.11174714     0.73900
O460        O  0.42430234  0.24683125  0.18476826    -0.39600
O461        O  0.46518921  0.29505530  0.22227067    -0.39500
O462        O  0.29362221  0.40490422  0.08675986    -0.40200
O463        O  0.31961533  0.45959757  0.12796537    -0.40300
C464        C  0.68364258  0.61326110  0.76055494    -0.12600
C465        C  0.67876835  0.66045028  0.75580885     0.04500
C466        C  0.65563132  0.68488663  0.79012936    -0.07800
C467        C  0.63640011  0.66198184  0.82692767    -0.08600
C468        C  0.64065533  0.61504706  0.83125096    -0.03100
C469        C  0.66521807  0.59051610  0.79808905     0.03700
N470        N  0.67020096  0.54245056  0.80057348     0.66200
H471        H  0.70098494  0.59376963  0.73477091     0.15100
H472        H  0.61904079  0.68129279  0.85283590     0.14800
N473        N  0.65296936  0.73309533  0.79011585     0.73900
O474        O  0.64182209  0.51794123  0.78011171    -0.39600
O475        O  0.70852870  0.52595088  0.81096262    -0.39500
O476        O  0.61396425  0.75120968  0.79152224    -0.40200
O477        O  0.68640018  0.75497929  0.80536882    -0.40300
C478        C  0.65680904  0.31535044  0.78128776    -0.12600
C479        C  0.68283216  0.34300574  0.75220000     0.04500
C480        C  0.68888197  0.38904819  0.76409302    -0.07800
C481        C  0.66932981  0.40604113  0.80413053    -0.08600
C482        C  0.64273635  0.37860961  0.83264755    -0.03100
C483        C  0.63681336  0.33258412  0.82106239     0.03700
N484        N  0.61280614  0.30191828  0.85013622     0.66200
H485        H  0.65236218  0.28001494  0.77366029     0.15100
H486        H  0.67421181  0.44091669  0.81233447     0.14800
N487        N  0.71280352  0.42003146  0.73527734     0.73900
O488        O  0.57351635  0.28917650  0.83885608    -0.39600
O489        O  0.63535434  0.27759206  0.87730519    -0.39500
O490        O  0.69023600  0.44450651  0.70822951    -0.40200
O491        O  0.75247355  0.43213169  0.74615138    -0.40300
C492        C  0.41363246  0.35119452  0.75208800    -0.12600
C493        C  0.36605761  0.35193470  0.74770007     0.04500
C494        C  0.33931688  0.37238745  0.78216380    -0.07800
C495        C  0.36061967  0.39144270  0.81996404    -0.08600
C496        C  0.40817210  0.38994225  0.82447268    -0.03100
C497        C  0.43475099  0.37000431  0.78988826     0.03700
N498        N  0.48330889  0.36931630  0.79170080     0.66200
H499        H  0.43472936  0.33653672  0.72581121     0.15100
H500        H  0.33981398  0.40621453  0.84640231     0.14800
N501        N  0.29063453  0.37190029  0.78110464     0.73900
O502        O  0.50290608  0.33249339  0.80130458    -0.39600
O503        O  0.50531331  0.39930458  0.77035548    -0.39500
O504        O  0.26983981  0.34177597  0.80346132    -0.40200
O505        O  0.26966667  0.40786395  0.77081144    -0.40300
C506        C  0.35227776  0.61866246  0.76399817    -0.12600
C507        C  0.37727166  0.65285296  0.74180749     0.04500
C508        C  0.41623156  0.67043599  0.76388571    -0.07800
C509        C  0.43004508  0.65229770  0.80566714    -0.08600
C510        C  0.40570589  0.61722169  0.82689474    -0.03100
C511        C  0.36569817  0.60119516  0.80605303     0.03700
N512        N  0.33734630  0.56788326  0.82710797     0.66200
H513        H  0.32172920  0.60535923  0.74906293     0.15100
H514        H  0.46032860  0.66560132  0.82118048     0.14800
N515        N  0.44277496  0.70637828  0.74494716     0.73900
O516        O  0.30266152  0.58086205  0.84918108    -0.39600
O517        O  0.33901647  0.52763500  0.81280489    -0.39500
O518        O  0.43749984  0.74579897  0.76072102    -0.40200
O519        O  0.47972326  0.69668740  0.72494942    -0.40300
loop_ 
_geom_bond_atom_site_label_1 
_geom_bond_atom_site_label_2 
_geom_bond_distance 
_geom_bond_site_symmetry_2 
_ccdc_geom_bond_type 
N1            N2   1.319       .  A
N1            N7   1.315       .  A
N1          Mn30   2.177       .  S
N2            C9   1.349       .  A
N3            N5   1.315       .  A
N3            N4   1.321       .  A
N3          Mn19   2.185   1_554  S
N4           C10   1.350       .  A
N5            N6   1.320       .  A
N5          Mn30   2.227   1_554  S
N6           C10   1.358       .  A
N7            N8   1.316       .  A
N7          Mn19   2.200       .  S
N8            C9   1.353       .  A
C9          C468   1.467       .  S
C10         C423   1.486       .  S
N11          N17   1.314       .  A
N11          N12   1.321       .  A
N11         Mn41   2.195   1_554  S
N12          C20   1.354       .  A
N13          N14   1.319       .  A
N13          N15   1.314       .  A
N13         Mn19   2.196       .  S
N14          C21   1.355       .  A
N15          N16   1.320       .  A
N15         Mn41   2.196       .  S
N16          C21   1.353       .  A
N17          N18   1.315       .  A
N17         Mn19   2.191   1_554  S
N18          C20   1.351       .  A
Mn19        Cl43   2.541       .  S
C20         C440   1.473       .  S
C21         C510   1.483       .  S
N22          N23   1.319       .  A
N22          N28   1.315       .  A
N22         Mn30   2.182   1_554  S
N23          C31   1.350       .  A
N24          N26   1.315       .  A
N24          N25   1.321       .  A
N24         Mn42   2.188       .  S
N25          C32   1.351       .  A
N26          N27   1.321       .  A
N26         Mn30   2.219       .  S
N27          C32   1.357       .  A
N28          N29   1.319       .  A
N28         Mn42   2.210   1_554  S
N29          C31   1.355       .  A
Mn30        Cl43   2.547       .  S
C31         C412   1.473       .  S
C32         C482   1.483       .  S
N33          N34   1.317       .  A
N33          N39   1.316       .  A
N33         Mn41   2.187       .  S
N34          C44   1.350       .  A
N35          N36   1.317       .  A
N35          N37   1.314       .  A
N35         Mn42   2.193   1_554  S
N36          C45   1.352       .  A
N37          N38   1.320       .  A
N37         Mn41   2.187   1_554  S
N38          C45   1.352       .  A
N39          N40   1.321       .  A
N39         Mn42   2.202       .  S
N40          C44   1.353       .  A
Mn41        Cl43   2.551       .  S
Mn42        Cl43   2.540       .  S
C44         C496   1.470       .  S
C45         C451   1.475       .  S
N46          N47   1.317       .  A
N46          N52   1.313       .  A
N46         Mn75   2.193   1_565  S
N47          C54   1.353       .  A
N48          N50   1.315       .  A
N48          N49   1.318       .  A
N48         Mn64   2.203       .  S
N49          C55   1.354       .  A
N50          N51   1.318       .  A
N50         Mn75   2.182       .  S
N51          C55   1.350       .  A
N52          N53   1.320       .  A
N52         Mn64   2.186   1_565  S
N53          C54   1.351       .  A
C54         C398   1.471       .  S
C55         C325   1.471       .  S
N56          N62   1.314       .  A
N56          N57   1.321       .  A
N56         Mn86   2.190       .  S
N57          C65   1.352       .  A
N58          N59   1.316       .  A
N58          N60   1.313       .  A
N58         Mn64   2.197   1_565  S
N59          C66   1.354       .  A
N60          N61   1.317       .  A
N60         Mn86   2.164   1_565  S
N61          C66   1.347       .  A
N62          N63   1.316       .  A
N62         Mn64   2.188       .  S
N63          C65   1.350       .  A
Mn64        Cl88   2.531       .  S
C65         C311   1.467       .  S
C66         C353   1.466       .  S
N67          N68   1.318       .  A
N67          N73   1.314       .  A
N67         Mn75   2.190       .  S
N68          C76   1.351       .  A
N69          N71   1.315       .  A
N69          N70   1.316       .  A
N69         Mn87   2.208   1_565  S
N70          C77   1.354       .  A
N71          N72   1.322       .  A
N71         Mn75   2.187   1_565  S
N72          C77   1.353       .  A
N73          N74   1.318       .  A
N73         Mn87   2.187       .  S
N74          C76   1.351       .  A
Mn75        Cl88   2.548       .  S
C76         C339   1.466       .  S
C77         C381   1.482       .  S
N78          N79   1.312       .  A
N78          N84   1.313       .  A
N78         Mn86   2.180   1_565  S
N79          C89   1.349       .  A
N80          N81   1.317       .  A
N80          N82   1.315       .  A
N80         Mn87   2.215       .  S
N81          C90   1.356       .  A
N82          N83   1.319       .  A
N82         Mn86   2.165       .  S
N83          C90   1.349       .  A
N84          N85   1.321       .  A
N84         Mn87   2.182   1_565  S
N85          C89   1.352       .  A
Mn86        Cl88   2.546       .  S
Mn87        Cl88   2.531       .  S
C89         C367   1.465       .  S
C90         C297   1.474       .  S
N91          N92   1.312       .  A
N91          N97   1.314       .  A
N91        Mn120   2.180   1_655  S
N92          C99   1.350       .  A
N93          N95   1.315       .  A
N93          N94   1.320       .  A
N93        Mn109   2.196       .  S
N94         C100   1.352       .  A
N95          N96   1.320       .  A
N95        Mn120   2.205       .  S
N96         C100   1.355       .  A
N97          N98   1.321       .  A
N97        Mn109   2.191   1_655  S
N98          C99   1.352       .  A
C99         C283   1.465       .  S
C100        C216   1.477       .  S
N101        N107   1.314       .  A
N101        N102   1.318       .  A
N101       Mn131   2.176       .  S
N102        C110   1.348       .  A
N103        N104   1.316       .  A
N103        N105   1.313       .  A
N103       Mn109   2.189   1_655  S
N104        C111   1.352       .  A
N105        N106   1.320       .  A
N105       Mn131   2.188   1_655  S
N106        C111   1.353       .  A
N107        N108   1.318       .  A
N107       Mn109   2.198       .  S
N108        C110   1.354       .  A
Mn109      Cl133   2.542       .  S
C110        C199   1.469       .  S
C111        C241   1.478       .  S
N112        N113   1.318       .  A
N112        N118   1.314       .  A
N112       Mn120   2.197       .  S
N113        C121   1.354       .  A
N114        N116   1.315       .  A
N114        N115   1.318       .  A
N114       Mn132   2.204   1_655  S
N115        C122   1.353       .  A
N116        N117   1.324       .  A
N116       Mn120   2.204   1_655  S
N117        C122   1.354       .  A
N118        N119   1.316       .  A
N118       Mn132   2.169       .  S
N119        C121   1.347       .  A
Mn120      Cl133   2.541       .  S
C121        C227   1.465       .  S
C122        C269   1.481       .  S
N123        N124   1.319       .  A
N123        N129   1.313       .  A
N123       Mn131   2.176   1_655  S
N124        C134   1.350       .  A
N125        N126   1.322       .  A
N125        N127   1.315       .  A
N125       Mn132   2.200       .  S
N126        C135   1.354       .  A
N127        N128   1.317       .  A
N127       Mn131   2.191       .  S
N128        C135   1.351       .  A
N129        N130   1.313       .  A
N129       Mn132   2.179   1_655  S
N130        C134   1.351       .  A
Mn131      Cl133   2.544       .  S
Mn132      Cl133   2.539       .  S
C134        C258   1.461       .  S
C135        C185   1.471       .  S
C136        N137   1.360       .  A
C136        N141   1.359       .  A
C136        C272   1.481       .  S
N137        C138   1.358       .  A
C138        N139   1.351       .  A
C138        C409   1.483       .  S
N139        C140   1.357       .  A
C140        N141   1.359       .  A
C140        C342   1.470       .  S
C142        N143   1.354       .  A
C142        N147   1.359       .  A
C142        C286   1.472       .  S
N143        C144   1.350       .  A
C144        N145   1.361       .  A
C144        C384   1.491       .  S
N145        C146   1.364       .  A
C146        N147   1.360       .  A
C146        C426   1.496       .  S
C148        N149   1.351       .  A
C148        N153   1.357       .  A
C148        C479   1.488       .  S
N149        C150   1.357       .  A
C150        N151   1.359       .  A
C150        C255   1.468       .  S
N151        C152   1.358       .  A
C152        N153   1.362       .  A
C152        C300   1.487       .  S
C154        N155   1.359       .  A
C154        N159   1.362       .  A
C154        C395   1.482       .  S
N155        C156   1.355       .  A
C156        N157   1.350       .  A
C156        C213   1.485       .  S
N157        C158   1.360       .  A
C158        N159   1.362       .  A
C158        C437   1.483       .  S
C160        N161   1.361       .  A
C160        N165   1.358       .  A
C160        C356   1.471       .  S
N161        C162   1.354       .  A
C162        N163   1.358       .  A
C162        C507   1.492       .  S
N163        C164   1.359       .  A
C164        N165   1.356       .  A
C164        C202   1.481       .  S
C166        N167   1.354       .  A
C166        N171   1.356       .  A
C166        C493   1.474       .  S
N167        C168   1.359       .  A
C168        N169   1.356       .  A
C168        C188   1.462       .  S
N169        C170   1.352       .  A
C170        N171   1.356       .  A
C170        C314   1.471       .  S
C172        N173   1.359       .  A
C172        N177   1.356       .  A
C172        C465   1.477       .  S
N173        C174   1.360       .  A
C174        N175   1.358       .  A
C174        C370   1.475       .  S
N175        C176   1.351       .  A
C176        N177   1.356       .  A
C176        C244   1.485       .  S
C178        N179   1.360       .  A
C178        N183   1.351       .  A
C178        C328   1.474       .  S
N179        C180   1.356       .  A
C180        N181   1.359       .  A
C180        C454   1.482       .  S
N181        C182   1.351       .  A
C182        N183   1.355       .  A
C182        C230   1.477       .  S
C184        C185   1.406       .  A
C184        C189   1.397       .  A
C184        H191   1.085       .  S
C185        C186   1.411       .  A
C186        C187   1.395       .  A
C186        N193   1.428       .  S
C187        C188   1.398       .  A
C187        H192   1.082       .  S
C188        C189   1.405       .  A
C189        N190   1.431       .  S
N190        O194   1.262       .  A
N190        O195   1.262       .  A
N193        O197   1.262       .  A
N193        O196   1.261       .  A
C198        C199   1.398       .  A
C198        C203   1.396       .  A
C198        H205   1.077       .  S
C199        C200   1.409       .  A
C200        C201   1.396       .  A
C200        N207   1.428       .  S
C201        C202   1.406       .  A
C201        H206   1.076       .  S
C202        C203   1.415       .  A
C203        N204   1.427       .  S
N204        O208   1.262       .  A
N204        O209   1.261       .  A
N207        O211   1.262       .  A
N207        O210   1.262       .  A
C212        C213   1.404       .  A
C212        C217   1.398       .  A
C212        H219   1.077       .  S
C213        C214   1.417       .  A
C214        C215   1.399       .  A
C214        N221   1.428       .  S
C215        C216   1.401       .  A
C215        H220   1.077       .  S
C216        C217   1.411       .  A
C217        N218   1.428       .  S
N218        O222   1.262       .  A
N218        O223   1.262       .  A
N221        O225   1.262       .  A
N221        O224   1.262       .  A
C226        C227   1.400       .  A
C226        C231   1.396       .  A
C226        H233   1.077       .  S
C227        C228   1.409       .  A
C228        C229   1.389       .  A
C228        N235   1.429       .  S
C229        C230   1.404       .  A
C229        H234   1.076       .  S
C230        C231   1.417       .  A
C231        N232   1.429       .  S
N232        O236   1.262       .  A
N232        O237   1.262       .  A
N235        O239   1.262       .  A
N235        O238   1.262       .  A
C240        C241   1.403       .  A
C240        C245   1.397       .  A
C240        H247   1.076       .  S
C241        C242   1.409       .  A
C242        C243   1.395       .  A
C242        N249   1.426       .  S
C243        C244   1.405       .  A
C243        H248   1.076       .  S
C244        C245   1.417       .  A
C245        N246   1.429       .  S
N246        O250   1.262       .  A
N246        O251   1.262       .  A
N249        O253   1.261       .  A
N249        O252   1.262       .  A
C254        C255   1.405       .  A
C254        C259   1.393       .  A
C254        H261   1.077       .  S
C255        C256   1.410       .  A
C256        C257   1.390       .  A
C256        N263   1.426       .  S
C257        C258   1.398       .  A
C257        H262   1.078       .  S
C258        C259   1.408       .  A
C259        N260   1.429       .  S
N260        O264   1.261       .  A
N260        O265   1.262       .  A
N263        O267   1.261       .  A
N263        O266   1.262       .  A
C268        C269   1.403       .  A
C268        C273   1.397       .  A
C268        H275   1.077       .  S
C269        C270   1.412       .  A
C270        C271   1.401       .  A
C270        N277   1.429       .  S
C271        C272   1.406       .  A
C271        H276   1.077       .  S
C272        C273   1.412       .  A
C273        N274   1.429       .  S
N274        O278   1.262       .  A
N274        O279   1.261       .  A
N277        O281   1.262       .  A
N277        O280   1.262       .  A
C282        C283   1.397       .  A
C282        C287   1.389       .  A
C282        H289   1.077       .  S
C283        C284   1.407       .  A
C284        C285   1.397       .  A
C284        N291   1.428       .  S
C285        C286   1.407       .  A
C285        H290   1.076       .  S
C286        C287   1.409       .  A
C287        N288   1.425       .  S
N288        O292   1.262       .  A
N288        O293   1.262       .  A
N291        O295   1.262       .  A
N291        O294   1.262       .  A
C296        C297   1.396       .  A
C296        C301   1.393       .  A
C296        H303   1.077       .  S
C297        C298   1.411       .  A
C298        C299   1.398       .  A
C298        N305   1.429       .  S
C299        C300   1.408       .  A
C299        H304   1.076       .  S
C300        C301   1.417       .  A
C301        N302   1.426       .  S
N302        O306   1.262       .  A
N302        O307   1.261       .  A
N305        O309   1.262       .  A
N305        O308   1.262       .  A
C310        C311   1.402       .  A
C310        C315   1.397       .  A
C310        H317   1.077       .  S
C311        C312   1.407       .  A
C312        C313   1.395       .  A
C312        N319   1.428       .  S
C313        C314   1.403       .  A
C313        H318   1.077       .  S
C314        C315   1.412       .  A
C315        N316   1.430       .  S
N316        O320   1.262       .  A
N316        O321   1.262       .  A
N319        O323   1.262       .  A
N319        O322   1.262       .  A
C324        C325   1.401       .  A
C324        C329   1.396       .  A
C324        H331   1.077       .  S
C325        C326   1.410       .  A
C326        C327   1.393       .  A
C326        N333   1.427       .  S
C327        C328   1.401       .  A
C327        H332   1.076       .  S
C328        C329   1.416       .  A
C329        N330   1.429       .  S
N330        O334   1.262       .  A
N330        O335   1.262       .  A
N333        O337   1.262       .  A
N333        O336   1.261       .  A
C338        C339   1.403       .  A
C338        C343   1.399       .  A
C338        H345   1.077       .  S
C339        C340   1.407       .  A
C340        C341   1.391       .  A
C340        N347   1.429       .  S
C341        C342   1.403       .  A
C341        H346   1.077       .  S
C342        C343   1.410       .  A
C343        N344   1.429       .  S
N344        O348   1.262       .  A
N344        O349   1.261       .  A
N347        O351   1.262       .  A
N347        O350   1.261       .  A
C352        C353   1.397       .  A
C352        C357   1.391       .  A
C352        H359   1.077       .  S
C353        C354   1.411       .  A
C354        C355   1.394       .  A
C354        N361   1.429       .  S
C355        C356   1.403       .  A
C355        H360   1.077       .  S
C356        C357   1.414       .  A
C357        N358   1.427       .  S
N358        O362   1.262       .  A
N358        O363   1.261       .  A
N361        O365   1.262       .  A
N361        O364   1.262       .  A
C366        C367   1.398       .  A
C366        C371   1.389       .  A
C366        H373   1.077       .  S
C367        C368   1.407       .  A
C368        C369   1.396       .  A
C368        N375   1.428       .  S
C369        C370   1.407       .  A
C369        H374   1.075       .  S
C370        C371   1.410       .  A
C371        N372   1.424       .  S
N372        O376   1.262       .  A
N372        O377   1.262       .  A
N375        O379   1.262       .  A
N375        O378   1.262       .  A
C380        C381   1.400       .  A
C380        C385   1.394       .  A
C380        H387   1.077       .  S
C381        C382   1.413       .  A
C382        C383   1.403       .  A
C382        N389   1.429       .  S
C383        C384   1.407       .  A
C383        H388   1.076       .  S
C384        C385   1.420       .  A
C385        N386   1.429       .  S
N386        O390   1.262       .  A
N386        O391   1.262       .  A
N389        O393   1.262       .  A
N389        O392   1.262       .  A
C394        C395   1.407       .  A
C394        C399   1.397       .  A
C394        H401   1.077       .  S
C395        C396   1.413       .  A
C396        C397   1.397       .  A
C396        N403   1.426       .  S
C397        C398   1.399       .  A
C397        H402   1.077       .  S
C398        C399   1.409       .  A
C399        N400   1.429       .  S
N400        O404   1.262       .  A
N400        O405   1.262       .  A
N403        O407   1.260       .  A
N403        O406   1.262       .  A
C408        C409   1.405       .  A
C408        C413   1.397       .  A
C408        H415   1.077       .  S
C409        C410   1.417       .  A
C410        C411   1.398       .  A
C410        N417   1.429       .  S
C411        C412   1.400       .  A
C411        H416   1.078       .  S
C412        C413   1.410       .  A
C413        N414   1.429       .  S
N414        O418   1.262       .  A
N414        O419   1.262       .  A
N417        O421   1.262       .  A
N417        O420   1.262       .  A
C422        C423   1.397       .  A
C422        C427   1.396       .  A
C422        H429   1.077       .  S
C423        C424   1.415       .  A
C424        C425   1.403       .  A
C424        N431   1.428       .  S
C425        C426   1.408       .  A
C425        H430   1.076       .  S
C426        C427   1.417       .  A
C427        N428   1.423       .  S
N428        O432   1.262       .  A
N428        O433   1.262       .  A
N431        O435   1.262       .  A
N431        O434   1.262       .  A
C436        C437   1.404       .  A
C436        C441   1.391       .  A
C436        H443   1.067       .  S
C437        C438   1.412       .  A
C438        C439   1.397       .  A
C438        N445   1.423       .  S
C439        C440   1.401       .  A
C439        H444   1.076       .  S
C440        C441   1.404       .  A
C441        N442   1.421       .  S
N442        O446   1.262       .  A
N442        O447   1.262       .  A
N445        O449   1.262       .  A
N445        O448   1.262       .  A
C450        C451   1.404       .  A
C450        C455   1.399       .  A
C450        H457   1.076       .  S
C451        C452   1.407       .  A
C452        C453   1.390       .  A
C452        N459   1.425       .  S
C453        C454   1.404       .  A
C453        H458   1.072       .  S
C454        C455   1.416       .  A
C455        N456   1.429       .  S
N456        O460   1.262       .  A
N456        O461   1.262       .  A
N459        O463   1.258       .  A
N459        O462   1.261       .  A
C464        C465   1.406       .  A
C464        C469   1.398       .  A
C464        H471   1.077       .  S
C465        C466   1.411       .  A
C466        C467   1.393       .  A
C466        N473   1.425       .  S
C467        C468   1.396       .  A
C467        H472   1.077       .  S
C468        C469   1.409       .  A
C469        N470   1.427       .  S
N470        O474   1.262       .  A
N470        O475   1.262       .  A
N473        O477   1.262       .  A
N473        O476   1.261       .  A
C478        C479   1.406       .  A
C478        C483   1.401       .  A
C478        H485   1.076       .  S
C479        C480   1.416       .  A
C480        C481   1.400       .  A
C480        N487   1.429       .  S
C481        C482   1.401       .  A
C481        H486   1.068       .  S
C482        C483   1.413       .  A
C483        N484   1.429       .  S
N484        O488   1.260       .  A
N484        O489   1.261       .  A
N487        O491   1.262       .  A
N487        O490   1.262       .  A
C492        C493   1.402       .  A
C492        C497   1.394       .  A
C492        H499   1.077       .  S
C493        C494   1.413       .  A
C494        C495   1.399       .  A
C494        N501   1.428       .  S
C495        C496   1.402       .  A
C495        H500   1.077       .  S
C496        C497   1.406       .  A
C497        N498   1.426       .  S
N498        O502   1.260       .  A
N498        O503   1.262       .  A
N501        O505   1.262       .  A
N501        O504   1.262       .  A
C506        C507   1.407       .  A
C506        C511   1.397       .  A
C506        H513   1.076       .  S
C507        C508   1.419       .  A
C508        C509   1.401       .  A
C508        N515   1.429       .  S
C509        C510   1.404       .  A
C509        H514   1.077       .  S
C510        C511   1.411       .  A
C511        N512   1.428       .  S
N512        O516   1.262       .  A
N512        O517   1.262       .  A
N515        O519   1.262       .  A
N515        O518   1.262       .  A
