geometry optimzed in LAMMPS
_audit_creation_date              2020-12-01 
_audit_creation_method            'lammps2cif' 
_symmetry_space_group_name_H-M    'P1' 
_symmetry_Int_Tables_number       1 
_symmetry_cell_setting            triclinic 
loop_ 
_symmetry_equiv_pos_as_xyz 
  x,y,z 
_cell_length_a                    39.08882514 
_cell_length_b                    38.916473830242104 
_cell_length_c                    38.9352931992853 
_cell_angle_alpha                 89.8933632762773 
_cell_angle_beta                  89.7827724266032 
_cell_angle_gamma                 90.15426710608116 
loop_ 
_atom_site_label 
_atom_site_type_symbol 
_atom_site_fract_x 
_atom_site_fract_y 
_atom_site_fract_z 
_atom_site_charge 
C1          C  0.18270532  0.82270622  0.47454231     0.03100
C2          C  0.15659778  0.84761883  0.47308786    -0.13100
C3          C  0.14324125  0.86218450  0.50365253     0.00600
C4          C  0.15678250  0.85167271  0.53545961    -0.11600
C5          C  0.18339770  0.82765946  0.53677272     0.03100
C6          C  0.19586793  0.81315006  0.50645473    -0.11000
H7          H  0.14643868  0.85512708  0.44835175     0.08700
H8          H  0.14707898  0.86243500  0.55920859     0.06200
H9          H  0.21610275  0.79416829  0.50776304     0.06100
C10         C  0.95152466  0.03684133  0.46324640     0.03100
C11         C  0.97979075  0.01486664  0.46464189    -0.13100
C12         C  0.99545249  0.00749727  0.49641288     0.00600
C13         C  0.98444246  0.02535122  0.52603443    -0.11600
C14         C  0.95614521  0.04797827  0.52472066     0.03100
C15         C  0.93847533  0.05076910  0.49348398    -0.11000
H16         H  0.98931084  0.00349597  0.44110995     0.08700
H17         H  0.99832609  0.02177271  0.54972302     0.06200
H18         H  0.91481745  0.06499490  0.49186760     0.06100
C19         C  0.95668247  0.82441078  0.46721317     0.03100
C20         C  0.98270901  0.84928353  0.46753832    -0.13100
C21         C  0.99522387  0.86199055  0.49899044     0.00600
C22         C  0.98130133  0.84904739  0.53004683    -0.11600
C23         C  0.95571177  0.82360187  0.52951400     0.03100
C24         C  0.94353279  0.81167211  0.49807625    -0.11000
H25         H  0.99290604  0.85875978  0.44339334     0.08700
H26         H  0.99066865  0.85817700  0.55454609     0.06200
H27         H  0.92371485  0.79210056  0.49760107     0.06100
C28         C  0.53938607  0.80915363  0.10690554     0.03100
C29         C  0.57095307  0.79538039  0.11654825    -0.13100
C30         C  0.60146542  0.80848470  0.10320167     0.00600
C31         C  0.60063513  0.83507672  0.07888324    -0.11600
C32         C  0.56912886  0.84871261  0.06779889     0.03100
C33         C  0.53843953  0.83539975  0.08195580    -0.11000
H34         H  0.57188903  0.77505400  0.13562508     0.08700
H35         H  0.62454566  0.84535874  0.06908818     0.06200
H36         H  0.51399641  0.84602167  0.07443246     0.06100
C37         C  0.95387114  0.46423274  0.10617394     0.03100
C38         C  0.93945395  0.43347040  0.11802806    -0.13100
C39         C  0.95205107  0.40177039  0.10699627     0.00600
C40         C  0.97970440  0.40076417  0.08392675    -0.11600
C41         C  0.99434817  0.43151452  0.07137571     0.03100
C42         C  0.98131186  0.46323064  0.08286885    -0.11000
H43         H  0.91842000  0.43416406  0.13626569     0.08700
H44         H  0.98938986  0.37609910  0.07552808     0.06200
H45         H  0.99215020  0.48714372  0.07350648     0.06100
C46         C  0.96242533  0.46122357  0.88725258     0.03100
C47         C  0.98811656  0.46180246  0.91256437    -0.13100
C48         C  0.00145391  0.43068297  0.92574222     0.00600
C49         C  0.98903712  0.39927484  0.91273608    -0.11600
C50         C  0.96403723  0.39883489  0.88710207     0.03100
C51         C  0.95076690  0.42969315  0.87471283    -0.11000
H52         H  0.99704279  0.48625524  0.92235511     0.08700
H53         H  0.99872687  0.37507735  0.92242145     0.06200
H54         H  0.93102898  0.42913664  0.85520467     0.06100
C55         C  0.53577817  0.04459706  0.89325452     0.03100
C56         C  0.53599927  0.01651344  0.91594695    -0.13100
C57         C  0.56726209  0.00382306  0.92888211     0.00600
C58         C  0.59818178  0.01960201  0.91825338    -0.11600
C59         C  0.59789082  0.04747093  0.89511409     0.03100
C60         C  0.56656112  0.05974003  0.88314158    -0.11000
H61         H  0.51194734  0.00479793  0.92350084     0.08700
H62         H  0.62240979  0.01033830  0.92793574     0.06200
H63         H  0.56606476  0.08079794  0.86484745     0.06100
C64         C  0.18884951  0.39498683  0.89719564     0.03100
C65         C  0.16255798  0.39521425  0.92187467    -0.13100
C66         C  0.14807373  0.42663361  0.93262348     0.00600
C67         C  0.16002267  0.45754919  0.91793288    -0.11600
C68         C  0.18577912  0.45714690  0.89280379     0.03100
C69         C  0.20031853  0.42590388  0.88300923    -0.11000
H70         H  0.15340299  0.37107921  0.93239046     0.08700
H71         H  0.14863103  0.48184969  0.92515608     0.06200
H72         H  0.22017808  0.42554240  0.86346855     0.06100
C73         C  0.53947432  0.80944192  0.89005517     0.03100
C74         C  0.53835928  0.83751497  0.91272535    -0.13100
C75         C  0.56891372  0.85277518  0.92449640     0.00600
C76         C  0.60051203  0.84002896  0.91255568    -0.11600
C77         C  0.60159111  0.81216327  0.88990460     0.03100
C78         C  0.57115175  0.79710059  0.87873490    -0.11000
H79         H  0.51380828  0.84693538  0.92156698     0.08700
H80         H  0.62433880  0.85134623  0.92115190     0.06200
H81         H  0.57215322  0.77587164  0.86074934     0.06100
C82         C  0.04483333  0.31162056  0.38674017     0.03100
C83         C  0.04336469  0.34106241  0.40825062    -0.13100
C84         C  0.07298069  0.35331459  0.42520245     0.00600
C85         C  0.10482156  0.33818304  0.41739844    -0.11600
C86         C  0.10641050  0.30857723  0.39714344     0.03100
C87         C  0.07619557  0.29400924  0.38495803    -0.11000
H88         H  0.01964667  0.35476097  0.41190910     0.08700
H89         H  0.12829764  0.34870086  0.42775843     0.06200
H90         H  0.07798603  0.26917589  0.37279594     0.06100
C91         C  0.33310973  0.14359464  0.26190770     0.02300
C92         C  0.30326583  0.15842000  0.27626321     0.02300
C93         C  0.28948524  0.18886797  0.26191021     0.02300
C94         C  0.30446741  0.20322594  0.23195041     0.02300
C95         C  0.33412668  0.18845338  0.21758356     0.02300
C96         C  0.34764386  0.15802216  0.23181846     0.02300
C97         C  0.46515338  0.89593341  0.38534195     0.03100
C98         C  0.48825515  0.89647195  0.41292873    -0.13100
C99         C  0.49988601  0.92801781  0.42655787     0.00600
C100        C  0.48725059  0.95900118  0.41261093    -0.11600
C101        C  0.46382421  0.95843327  0.38536792     0.03100
C102        C  0.45322765  0.92697775  0.37176362    -0.11000
H103        H  0.49731365  0.87237391  0.42343334     0.08700
H104        H  0.49535628  0.98351775  0.42295739     0.06200
H105        H  0.43486510  0.92665015  0.35094683     0.06100
C106        C  0.33209962  0.71013967  0.26663363     0.02300
C107        C  0.30132533  0.69731953  0.28106604     0.02300
C108        C  0.28455930  0.66911809  0.26564482     0.02300
C109        C  0.29706191  0.65528665  0.23461151     0.02300
C110        C  0.32731107  0.66850941  0.21966691     0.02300
C111        C  0.34410577  0.69694115  0.23487701     0.02300
C112        C  0.78744573  0.16613131  0.22905944     0.02300
C113        C  0.79995845  0.15053087  0.25935258     0.02300
C114        C  0.82892919  0.16472162  0.27638010     0.02300
C115        C  0.84437921  0.19541919  0.26340150     0.02300
C116        C  0.83148984  0.21046095  0.23281326     0.02300
C117        C  0.80188787  0.19706200  0.21702711     0.02300
C118        C  0.68514801  0.89926285  0.39394937     0.03100
C119        C  0.69611602  0.93022521  0.37941781    -0.13100
C120        C  0.68194698  0.96145103  0.38983474     0.00600
C121        C  0.65664179  0.96180307  0.41560036    -0.11600
C122        C  0.64521356  0.93074223  0.43065351     0.03100
C123        C  0.65981613  0.89948637  0.41960602    -0.11000
H124        H  0.71537278  0.92996102  0.35928140     0.08700
H125        H  0.64553361  0.98607857  0.42331915     0.06200
H126        H  0.65125735  0.87528296  0.43046869     0.06100
C127        C  0.79227796  0.69761237  0.23443826     0.02300
C128        C  0.80698004  0.71236515  0.26425285     0.02300
C129        C  0.83728962  0.69813062  0.27803039     0.02300
C130        C  0.85174290  0.66835044  0.26346514     0.02300
C131        C  0.83839613  0.65515717  0.23268970     0.02300
C132        C  0.80780323  0.66856383  0.21897106     0.02300
C133        C  0.03546219  0.54140263  0.39100812     0.03100
C134        C  0.03623340  0.51534321  0.41602115    -0.13100
C135        C  0.06781644  0.50239659  0.42795760     0.00600
C136        C  0.09848062  0.51617057  0.41448207    -0.11600
C137        C  0.09754102  0.54208322  0.38939601     0.03100
C138        C  0.06612140  0.55463783  0.37802449    -0.11000
H139        H  0.01231877  0.50508179  0.42581498     0.08700
H140        H  0.12300319  0.50657004  0.42305991     0.06200
H141        H  0.06553014  0.57456280  0.35851091     0.06100
C142        C  0.47214454  0.30720962  0.03325204     0.03100
C143        C  0.49282553  0.33691805  0.03326435    -0.13100
C144        C  0.50373918  0.35198976  0.00198405     0.00600
C145        C  0.49289369  0.33726299  0.97083120    -0.11600
C146        C  0.47245265  0.30757905  0.97081767     0.03100
C147        C  0.46274599  0.29244876  0.00194153    -0.11000
H148        H  0.50006615  0.34830751  0.05754790     0.08700
H149        H  0.50008828  0.34888202  0.94653610     0.06200
H150        H  0.44604384  0.27014304  0.00177309     0.06100
C151        C  0.31293800  0.17294250  0.71607268     0.02300
C152        C  0.34253933  0.15811478  0.73013887     0.02300
C153        C  0.35725620  0.17199292  0.76001850     0.02300
C154        C  0.34384035  0.20234463  0.77445807     0.02300
C155        C  0.31427459  0.21757524  0.76022052     0.02300
C156        C  0.29968247  0.20347092  0.73019312     0.02300
C157        C  0.45430055  0.89677318  0.61032414     0.03100
C158        C  0.44167321  0.92778687  0.62286795    -0.13100
C159        C  0.45551355  0.95909187  0.61208356     0.00600
C160        C  0.48165508  0.95951631  0.58726045    -0.11600
C161        C  0.49485200  0.92845051  0.57411053     0.03100
C162        C  0.48116618  0.89696993  0.58621654    -0.11000
H163        H  0.42117055  0.92752965  0.64173974     0.08700
H164        H  0.49207324  0.98395423  0.57883230     0.06200
H165        H  0.49099520  0.87276178  0.57674594     0.06100
C166        C  0.29876165  0.65140329  0.76692695     0.02300
C167        C  0.28413470  0.66739549  0.73791504     0.02300
C168        C  0.29859194  0.69810410  0.72505117     0.02300
C169        C  0.32976557  0.71046775  0.73847685     0.02300
C170        C  0.34395114  0.69494453  0.76782677     0.02300
C171        C  0.32908418  0.66477926  0.78149413     0.02300
C172        C  0.03722678  0.54066339  0.60864139     0.03100
C173        C  0.06808390  0.55315049  0.62159369    -0.13100
C174        C  0.09935376  0.53927927  0.61109867     0.00600
C175        C  0.09958359  0.51252665  0.58675756    -0.11600
C176        C  0.06854772  0.49970877  0.57305209     0.03100
C177        C  0.03737392  0.51392881  0.58448911    -0.11000
H178        H  0.06771835  0.57378380  0.64029531     0.08700
H179        H  0.12378854  0.50157922  0.57882484     0.06200
H180        H  0.01327438  0.50456382  0.57447529     0.06100
C181        C  0.04030221  0.31570055  0.61384471     0.03100
C182        C  0.07177713  0.30264758  0.62449160    -0.13100
C183        C  0.10220407  0.31362203  0.60925432     0.00600
C184        C  0.10154205  0.33834015  0.58307296    -0.11600
C185        C  0.07016581  0.35194427  0.57166849     0.03100
C186        C  0.03940273  0.34012774  0.58707422    -0.11000
H187        H  0.07266095  0.28374555  0.64499251     0.08700
H188        H  0.12546611  0.34700499  0.57184997     0.06200
H189        H  0.01500209  0.35040600  0.57896740     0.06100
C190        C  0.83741543  0.16493171  0.72595190     0.02300
C191        C  0.80597683  0.15106867  0.73860873     0.02300
C192        C  0.79066277  0.16520610  0.76863433     0.02300
C193        C  0.80564139  0.19398086  0.78476859     0.02300
C194        C  0.83712513  0.20693441  0.77293206     0.02300
C195        C  0.85238493  0.19359009  0.74292514     0.02300
C196        C  0.68103529  0.90191509  0.61564838     0.03100
C197        C  0.65470706  0.90131135  0.59119552    -0.13100
C198        C  0.64318752  0.93203183  0.57586216     0.00600
C199        C  0.65851084  0.96345873  0.58543480    -0.11600
C200        C  0.68475029  0.96428830  0.61004940     0.03100
C201        C  0.69562845  0.93338932  0.62498172    -0.11000
H202        H  0.64306635  0.87698171  0.58440304     0.08700
H203        H  0.65038892  0.98721699  0.57348692     0.06200
H204        H  0.71566063  0.93378530  0.64417319     0.06100
C205        C  0.83525929  0.69580158  0.71990344     0.02300
C206        C  0.85001444  0.66540728  0.73342731     0.02300
C207        C  0.83587639  0.64989535  0.76324917     0.02300
C208        C  0.80632620  0.66407373  0.77863083     0.02300
C209        C  0.79199680  0.69453778  0.76532422     0.02300
C210        C  0.80565264  0.70974404  0.73533657     0.02300
C211        C  0.44566842  0.53606757  0.03232659     0.03100
C212        C  0.47206843  0.51147818  0.03279624    -0.13100
C213        C  0.48751585  0.50050080  0.00182706     0.00600
C214        C  0.47561781  0.51408409  0.97042861    -0.11600
C215        C  0.44944623  0.53865765  0.97001805     0.03100
C216        C  0.43469339  0.54933235  0.00088327    -0.11000
H217        H  0.48048841  0.50098476  0.05709708     0.08700
H218        H  0.48716616  0.50628566  0.94634478     0.06200
H219        H  0.41466464  0.56857654  0.00042450     0.06100
C220        C  0.68704353  0.33257408  0.03199020     0.03100
C221        C  0.66153750  0.35779824  0.03120619    -0.13100
C222        C  0.64642454  0.36764303  0.99991979     0.00600
C223        C  0.65817979  0.35248257  0.96903048    -0.11600
C224        C  0.68396798  0.32728135  0.96984655     0.03100
C225        C  0.69805139  0.31760798  0.00129496    -0.11000
H226        H  0.65348701  0.36971099  0.05499331     0.08700
H227        H  0.64692284  0.35958901  0.94466086     0.06200
H228        H  0.71758947  0.29786702  0.00189588     0.06100
C229        C  0.67708950  0.54698869  0.03417856     0.03100
C230        C  0.64978707  0.52347051  0.03357808    -0.13100
C231        C  0.63588209  0.51235837  0.00199369     0.00600
C232        C  0.64936164  0.52594033  0.97108904    -0.11600
C233        C  0.67629540  0.54999472  0.97175375     0.03100
C234        C  0.68967032  0.56042678  0.00331427    -0.11000
H235        H  0.64041696  0.51290784  0.05760690     0.08700
H236        H  0.63985297  0.51695881  0.94659720     0.06200
H237        H  0.71078927  0.57856403  0.00384604     0.06100
C238        C  0.53925658  0.03604298  0.11187103     0.03100
C239        C  0.57060095  0.04721987  0.12474534    -0.13100
C240        C  0.60120409  0.03399536  0.11206973     0.00600
C241        C  0.60059745  0.00896216  0.08622939    -0.11600
C242        C  0.56909889  0.99706412  0.07305236     0.03100
C243        C  0.53837470  0.01105666  0.08593644    -0.11000
H244        H  0.57120871  0.06683032  0.14451763     0.08700
H245        H  0.62457217  0.99903220  0.07640660     0.06200
H246        H  0.51390260  0.00248958  0.07612153     0.06100
C247        C  0.17591198  0.45736256  0.12080111     0.03100
C248        C  0.18714329  0.42586023  0.13369267    -0.13100
C249        C  0.17586039  0.39501048  0.11928294     0.00600
C250        C  0.15241167  0.39559208  0.09207910    -0.11600
C251        C  0.14014601  0.42713597  0.07923714     0.03100
C252        C  0.15233082  0.45802978  0.09369185    -0.11000
H253        H  0.20566312  0.42536798  0.15436866     0.08700
H254        H  0.14393551  0.37153239  0.08098583     0.06200
H255        H  0.14355708  0.48257634  0.08401001     0.06100
C256        C  0.17950902  0.04960249  0.47554872     0.03100
C257        C  0.15570392  0.02264445  0.47415075    -0.13100
C258        C  0.14158313  0.00900187  0.50461542     0.00600
C259        C  0.15241767  0.02236195  0.53655795    -0.11600
C260        C  0.17640714  0.04931787  0.53777523     0.03100
C261        C  0.18942751  0.06293604  0.50719672    -0.11000
H262        H  0.14817539  0.01255195  0.44938051     0.08700
H263        H  0.14217750  0.01208963  0.56035388     0.06200
H264        H  0.20816706  0.08353516  0.50805232     0.06100
O265        O  0.03363996  0.96981202  0.52694096    -0.71800
O266        O  0.10239041  0.90015703  0.53002332    -0.72000
O267        O  0.10237852  0.96929197  0.53029584    -0.71900
O268        O  0.03337538  0.90051448  0.52760816    -0.71900
O269        O  0.03591113  0.89995542  0.47193335    -0.71900
O270        O  0.10496721  0.96951118  0.47461422    -0.71900
O271        O  0.10495385  0.90023462  0.47435130    -0.71800
O272        O  0.03613136  0.96908851  0.47126740    -0.72000
V273        V  0.06799888  0.93488693  0.52762330     1.35200
V274        V  0.07045768  0.93469284  0.47412828     1.35200
C275        C  0.02306799  0.98127669  0.49838274     0.77400
C276        C  0.11565177  0.88850838  0.50262985     0.77500
C277        C  0.11534735  0.98137589  0.50305893     0.77400
C278        C  0.02265314  0.88853580  0.49946895     0.77300
O279        O  0.59612325  0.95878037  0.03360420    -0.71800
O280        O  0.59589223  0.89323187  0.96164254    -0.72000
O281        O  0.59551255  0.96252753  0.96481585    -0.71900
O282        O  0.59620930  0.88965656  0.03035974    -0.71900
O283        O  0.54071725  0.88986380  0.03176373    -0.71900
O284        O  0.54001855  0.96135414  0.96460934    -0.71900
O285        O  0.54039687  0.89179827  0.96275026    -0.71800
O286        O  0.54060807  0.95929243  0.03365431    -0.72000
V287        V  0.59482171  0.92604186  0.99758454     1.35200
V288        V  0.54148725  0.92560803  0.99814958     1.35200
C289        C  0.56851148  0.97058292  0.04570768     0.77400
C290        C  0.56826056  0.88064530  0.95043206     0.77500
C291        C  0.56761609  0.97461383  0.95366678     0.77400
C292        C  0.56861115  0.87724907  0.04227962     0.77300
O293        O  0.10838428  0.45566629  0.96927252    -0.71800
O294        O  0.03602895  0.45808268  0.03471889    -0.72000
O295        O  0.10469258  0.45599622  0.03827566    -0.71900
O296        O  0.03959154  0.45799188  0.96566886    -0.71900
O297        O  0.03794997  0.40225745  0.96600667    -0.71900
O298        O  0.10293402  0.40025552  0.03849421    -0.71900
O299        O  0.03425935  0.40233840  0.03498501    -0.71800
O300        O  0.10669179  0.39991728  0.96955612    -0.72000
V301        V  0.07217061  0.45584977  0.00198373     1.35200
V302        V  0.07047900  0.40228670  0.00223454     1.35200
C303        C  0.11994938  0.42739104  0.95824523     0.77400
C304        C  0.02274974  0.43059782  0.04604887     0.77500
C305        C  0.11492456  0.42782247  0.05082052     0.77400
C306        C  0.02748243  0.43039895  0.95352314     0.77300
O307        O  0.52962028  0.46556945  0.97400861    -0.71800
O308        O  0.60458318  0.40335977  0.97255448    -0.72000
O309        O  0.53612725  0.39650145  0.97372177    -0.71900
O310        O  0.59845950  0.47231219  0.97347338    -0.71900
O311        O  0.59818130  0.47197236  0.02919265    -0.71900
O312        O  0.53686159  0.39591122  0.02943558    -0.71900
O313        O  0.60521602  0.40335190  0.02827594    -0.71800
O314        O  0.52939113  0.46487868  0.02972699    -0.72000
V315        V  0.56711636  0.43450617  0.97451876     1.35200
V316        V  0.56736853  0.43409228  0.02805538     1.35200
C317        C  0.51659373  0.47585814  0.00195448     0.77400
C318        C  0.61769649  0.39261887  0.00018392     0.77500
C319        C  0.52633945  0.38284352  0.00169311     0.77400
C320        C  0.60947735  0.48468768  0.00144556     0.77300
O321        O  0.09664943  0.46098372  0.53446064    -0.71800
O322        O  0.09838968  0.39356163  0.46394373    -0.72000
O323        O  0.09671009  0.46281744  0.46538736    -0.71900
O324        O  0.09755732  0.39174413  0.53306993    -0.71900
O325        O  0.04206767  0.39046488  0.53276856    -0.71900
O326        O  0.04121670  0.46139694  0.46539725    -0.71900
O327        O  0.04292145  0.39204953  0.46324634    -0.71800
O328        O  0.04115939  0.45986048  0.53448187    -0.72000
V329        V  0.09622172  0.42721707  0.49919200     1.35200
V330        V  0.04291122  0.42594166  0.49897397     1.35200
C331        C  0.06873537  0.47225755  0.54638683     0.77400
C332        C  0.07119491  0.38109327  0.45154076     0.77500
C333        C  0.06867590  0.47440411  0.45398061     0.77400
C334        C  0.06989727  0.37906125  0.54463905     0.77300
O335        O  0.53514553  0.90134264  0.53631710    -0.71800
O336        O  0.60631790  0.90263221  0.46929736    -0.72000
O337        O  0.60413329  0.90302290  0.53829322    -0.71900
O338        O  0.53747660  0.90109590  0.46710904    -0.71900
O339        O  0.53581225  0.95681751  0.46728927    -0.71900
O340        O  0.60377045  0.95876627  0.53711803    -0.71900
O341        O  0.60471210  0.95834660  0.46805620    -0.71800
O342        O  0.53467940  0.95709036  0.53656042    -0.72000
V343        V  0.57072157  0.90312048  0.50277181     1.35200
V344        V  0.56971656  0.95667450  0.50231648     1.35200
C345        C  0.52273536  0.92898283  0.54797549     0.77400
C346        C  0.61765539  0.93063000  0.45711306     0.77500
C347        C  0.61580761  0.93123872  0.54945912     0.77400
C348        C  0.52532177  0.92865244  0.45490600     0.77300
C349        C  0.78839863  0.64560085  0.80697171    -0.19900
C350        C  0.79609288  0.65098950  0.84203194     0.36300
C351        C  0.77689265  0.63365971  0.86720161    -0.25900
C352        C  0.75021717  0.61116640  0.85827059     0.02800
C353        C  0.74269043  0.60566355  0.82337119     0.27600
C354        C  0.76181539  0.62301270  0.79810805    -0.25000
N355        N  0.82250128  0.67420014  0.85308600    -0.82400
H356        H  0.78260984  0.63804897  0.89405715     0.13400
C357        C  0.73058384  0.59338949  0.88580707     0.02700
N358        N  0.71579270  0.58235624  0.81378592    -0.81000
H359        H  0.75592805  0.61897133  0.77125638     0.18200
C360        C  0.69543205  0.59983635  0.88974521    -0.25800
C361        C  0.67654823  0.58473710  0.91676442     0.36200
C362        C  0.69323902  0.56262154  0.94000691    -0.19800
C363        C  0.72820286  0.55564369  0.93549731    -0.25100
C364        C  0.74701725  0.57073838  0.90863284     0.27600
H365        H  0.68297298  0.61744604  0.87223213     0.13400
N366        N  0.64114179  0.59329742  0.92181143    -0.82400
H367        H  0.74101119  0.53886978  0.95358012     0.18200
N368        N  0.78284432  0.56348885  0.90458972    -0.80900
H369        H  0.63326231  0.61126340  0.90349349     0.33800
H370        H  0.62673246  0.57109348  0.91745008     0.38300
H371        H  0.79115705  0.54656005  0.92367789     0.33800
H372        H  0.78596634  0.55080939  0.88113965     0.30500
H373        H  0.71338328  0.58136259  0.78706907     0.33800
H374        H  0.72296061  0.55775158  0.82178152     0.30500
H375        H  0.83464519  0.68613323  0.83234886     0.38400
H376        H  0.84110250  0.65965636  0.86567691     0.33800
C377        C  0.69378524  0.87009243  0.63224668    -0.19900
C378        C  0.71234156  0.84525351  0.61357301     0.36300
C379        C  0.72853366  0.81828752  0.63131463    -0.25900
C380        C  0.72649945  0.81565994  0.66725155     0.02800
C381        C  0.70686389  0.83975996  0.68573226     0.27600
C382        C  0.69092544  0.86686127  0.66806958    -0.25000
N383        N  0.71639674  0.84862829  0.57701046    -0.82400
H384        H  0.74373852  0.79980931  0.61718620     0.13400
C385        C  0.74632842  0.78846304  0.68521759     0.02700
N386        N  0.70353950  0.83678555  0.72238268    -0.81000
H387        H  0.67675309  0.88604867  0.68234382     0.18200
C388        C  0.77165023  0.79790708  0.70896477    -0.25800
C389        C  0.79168226  0.77312666  0.72567798     0.36200
C390        C  0.78653788  0.73794427  0.71807010    -0.19800
C391        C  0.76133628  0.72857839  0.69426350    -0.25100
C392        C  0.74089702  0.75338695  0.67808137     0.27600
H393        H  0.77608016  0.82486137  0.71436212     0.13400
N394        N  0.81705787  0.78468892  0.74968896    -0.82400
H395        H  0.75730648  0.70161082  0.68865891     0.18200
N396        N  0.71437378  0.74312662  0.65474421    -0.80900
H397        H  0.80424412  0.79675929  0.76994752     0.33800
H398        H  0.83049213  0.76417837  0.76034717     0.38300
H399        H  0.71372946  0.71637820  0.65228923     0.33800
H400        H  0.69097113  0.75031737  0.66561653     0.30500
H401        H  0.68842329  0.85666678  0.73211990     0.33800
H402        H  0.69045712  0.81387272  0.72755600     0.30500
H403        H  0.69248017  0.84451880  0.56584324     0.38400
H404        H  0.73239305  0.82934057  0.56749626     0.33800
C405        C  0.78630157  0.21325439  0.81157435    -0.19900
C406        C  0.76042567  0.23646664  0.80185221     0.36300
C407        C  0.74307392  0.25532682  0.82719658    -0.25900
C408        C  0.75115621  0.25149977  0.86200496     0.02800
C409        C  0.77679353  0.22800845  0.87184707     0.27600
C410        C  0.79430193  0.20917690  0.84643539    -0.25000
N411        N  0.75183593  0.24065640  0.76622124    -0.82400
H412        H  0.72315122  0.27316489  0.81984125     0.13400
C413        C  0.73219166  0.27210012  0.88781249     0.02700
N414        N  0.78487016  0.22344347  0.90753891    -0.81000
H415        H  0.81424631  0.19135225  0.85371957     0.18200
C416        C  0.70696375  0.25609870  0.90795137    -0.25800
C417        C  0.68914576  0.27450515  0.93338485     0.36200
C418        C  0.69661654  0.30960887  0.93862334    -0.19800
C419        C  0.72129980  0.32583107  0.91792564    -0.25100
C420        C  0.73925378  0.30736735  0.89252635     0.27600
H421        H  0.70159467  0.22903699  0.90413375     0.13400
N422        N  0.66429629  0.25750479  0.95482351    -0.82400
H423        H  0.72766331  0.35251095  0.92270912     0.18200
N424        N  0.76581393  0.32376651  0.87273672    -0.80900
H425        H  0.66204285  0.23161694  0.94802018     0.33800
H426        H  0.64055647  0.26882237  0.95004553     0.38300
H427        H  0.76874539  0.34938044  0.88025779     0.33800
H428        H  0.75795797  0.32428660  0.84711835     0.30500
H429        H  0.80402570  0.20497295  0.91045988     0.33800
H430        H  0.79498064  0.24663296  0.91651689     0.30500
H431        H  0.77315555  0.25097945  0.75359872     0.38400
H432        H  0.73206063  0.25846113  0.76339444     0.33800
C433        C  0.70130650  0.99697067  0.62098985    -0.19900
C434        C  0.68209766  0.02498848  0.63369404     0.36300
C435        C  0.69922052  0.05281710  0.64919813    -0.25900
C436        C  0.73491746  0.05280847  0.65257847     0.02800
C437        C  0.75419818  0.02605300  0.63796130     0.27600
C438        C  0.73723234  0.99845892  0.62223222    -0.25000
N439        N  0.64535647  0.02432554  0.63243480    -0.82400
H440        H  0.68463029  0.07364176  0.66040387     0.13400
C441        C  0.75173354  0.07863425  0.67474936     0.02700
N442        N  0.79089868  0.02650701  0.64035133    -0.81000
H443        H  0.75206061  0.97731115  0.61198448     0.18200
C444        C  0.76341472  0.06821922  0.70709695    -0.25800
C445        C  0.78104492  0.09081405  0.72869172     0.36200
C446        C  0.78707135  0.12509679  0.71766691    -0.19800
C447        C  0.77494114  0.13549854  0.68527428    -0.25100
C448        C  0.75734289  0.11259671  0.66368754     0.27600
H449        H  0.75932415  0.04191353  0.71539341     0.13400
N450        N  0.79381703  0.07733601  0.76053241    -0.82400
H451        H  0.77937072  0.16169243  0.67681865     0.18200
N452        N  0.74540042  0.12353559  0.63057206    -0.80900
H453        H  0.77280301  0.07122292  0.77608117     0.33800
H454        H  0.80873069  0.09525435  0.77360499     0.38300
H455        H  0.75141209  0.14941359  0.62641659     0.33800
H456        H  0.75876901  0.10953227  0.61199830     0.30500
H457        H  0.80133221  0.00475241  0.62863280     0.33800
H458        H  0.79974788  0.04776275  0.62641873     0.30500
H459        H  0.63693340  0.00424984  0.64824444     0.38400
H460        H  0.63520939  0.04694795  0.64267576     0.33800
C461        C  0.00917158  0.30334997  0.63202763    -0.19900
C462        C  0.98401819  0.28364011  0.61514236     0.36300
C463        C  0.95833713  0.26719416  0.63467961    -0.25900
C464        C  0.95765086  0.26992617  0.67062775     0.02800
C465        C  0.98200822  0.29052463  0.68739718     0.27600
C466        C  0.00758021  0.30698335  0.66793647    -0.25000
N467        N  0.98533678  0.27944967  0.57849435    -0.82400
H468        H  0.93921202  0.25156022  0.62199636     0.13400
C469        C  0.93101043  0.25132528  0.69045524     0.02700
N470        N  0.98097875  0.29406657  0.72414221    -0.81000
H471        H  0.02704644  0.32197119  0.68088119     0.18200
C472        C  0.93980191  0.22071173  0.70745639    -0.25800
C473        C  0.91526659  0.20150441  0.72573519     0.36200
C474        C  0.88107457  0.21332065  0.72693036    -0.19800
C475        C  0.87268383  0.24439117  0.71066729    -0.25100
C476        C  0.89708729  0.26360038  0.69261412     0.27600
H477        H  0.96591828  0.21149780  0.70619249     0.13400
N478        N  0.92593677  0.17042643  0.74251756    -0.82400
H479        H  0.84646165  0.25337479  0.71125135     0.18200
N480        N  0.88630185  0.29512190  0.67666173    -0.80900
H481        H  0.93335540  0.15307493  0.72343284     0.33800
H482        H  0.90584157  0.15898616  0.75606410     0.38300
H483        H  0.87817661  0.31163349  0.69619927     0.33800
H484        H  0.90640189  0.30765411  0.66413087     0.30500
H485        H  0.00090432  0.30989620  0.73254799     0.33800
H486        H  0.95819225  0.30658092  0.73052947     0.30500
H487        H  0.00767161  0.26593945  0.57257318     0.38400
H488        H  0.96489418  0.26427677  0.57012799     0.33800
C489        C  0.87709648  0.64708847  0.71375170    -0.19900
C490        C  0.91159449  0.65778885  0.71370864     0.36300
C491        C  0.93550433  0.64003676  0.69334131    -0.25900
C492        C  0.92567427  0.61140397  0.67379354     0.02800
C493        C  0.89129642  0.60054442  0.67414193     0.27600
C494        C  0.86736801  0.61855575  0.69407159    -0.25000
N495        N  0.92223787  0.68642437  0.73431286    -0.82400
H496        H  0.96207627  0.64804847  0.69323037     0.13400
C497        C  0.95195259  0.59218652  0.65419068     0.02700
N498        N  0.88085669  0.57142755  0.65404181    -0.81000
H499        H  0.84078774  0.61067884  0.69383056     0.18200
C500        C  0.95948199  0.55825723  0.66373400    -0.25800
C501        C  0.98603791  0.54004717  0.64758678     0.36200
C502        C  0.00517264  0.55611839  0.62134965    -0.19800
C503        C  0.99698077  0.58965069  0.61107268    -0.25100
C504        C  0.97036401  0.60782029  0.62714329     0.27600
H505        H  0.94532331  0.54642044  0.68463392     0.13400
N506        N  0.99494259  0.50609008  0.65897294    -0.82400
H507        H  0.01214110  0.60199206  0.59118833     0.18200
N508        N  0.96231776  0.64224336  0.61659884    -0.80900
H509        H  0.97905825  0.49837940  0.67925281     0.33800
H510        H  0.99017369  0.48920433  0.63869322     0.38300
H511        H  0.97841251  0.65002529  0.59651652     0.33800
H512        H  0.93745701  0.64197232  0.60678237     0.30500
H513        H  0.85471685  0.56662099  0.65733243     0.33800
H514        H  0.88445590  0.57778668  0.62817402     0.30500
H515        H  0.94830546  0.69141778  0.73074290     0.38400
H516        H  0.91908811  0.67956076  0.76004650     0.33800
C517        C  0.43758263  0.55479518  0.93782516    -0.19900
C518        C  0.41919250  0.53597141  0.91305081     0.36300
C519        C  0.40366298  0.55358135  0.88564512    -0.25900
C520        C  0.40603801  0.58947207  0.88303879     0.02800
C521        C  0.42549395  0.60807832  0.90700285     0.27600
C522        C  0.44105621  0.59053752  0.93424922    -0.25000
N523        N  0.41526663  0.49939715  0.91658490    -0.82400
H524        H  0.38866909  0.53953966  0.86695899     0.13400
C525        C  0.38643777  0.60773274  0.85633056     0.02700
N526        N  0.42844770  0.64480530  0.90403171    -0.81000
H527        H  0.45511411  0.60486665  0.95345125     0.18200
C528        C  0.35605783  0.62427293  0.86612620    -0.25800
C529        C  0.33690291  0.64309314  0.84227136     0.36200
C530        C  0.34806907  0.64510664  0.80799211    -0.19800
C531        C  0.37856250  0.62877426  0.79824380    -0.25100
C532        C  0.39803441  0.61023357  0.82196519     0.27600
H533        H  0.34738289  0.62283046  0.89256740     0.13400
N534        N  0.30656393  0.66060077  0.85304646    -0.82400
H535        H  0.38730795  0.63051650  0.77184003     0.18200
N536        N  0.42931447  0.59468706  0.81026421    -0.80900
H537        H  0.28982405  0.64240485  0.86360819     0.33800
H538        H  0.31327172  0.67777472  0.87252364     0.38300
H539        H  0.44572314  0.61449146  0.80242494     0.33800
H540        H  0.44183918  0.58163775  0.82995159     0.30500
H541        H  0.44336436  0.65470583  0.92394908     0.33800
H542        H  0.44156588  0.65016619  0.88117642     0.30500
H543        H  0.40099162  0.49475825  0.93888827     0.38400
H544        H  0.40104319  0.48947336  0.89616875     0.33800
C545        C  0.13103223  0.55306999  0.62703337    -0.19900
C546        C  0.15496974  0.57271719  0.60805897     0.36300
C547        C  0.18097666  0.59072524  0.62556420    -0.25900
C548        C  0.18317915  0.58961687  0.66153823     0.02800
C549        C  0.16005994  0.56904522  0.68032474     0.27600
C550        C  0.13420853  0.55104992  0.66292087    -0.25000
N551        N  0.15155350  0.57598509  0.57146128    -0.82400
H552        H  0.19895144  0.60651415  0.61127408     0.13400
C553        C  0.20925281  0.61058634  0.67965167     0.02700
N554        N  0.16258604  0.56715687  0.71710593    -0.81000
H555        H  0.11565180  0.53621434  0.67749384     0.18200
C556        C  0.19882374  0.63931477  0.69875612    -0.25800
C557        C  0.22225298  0.65846178  0.71824925     0.36200
C558        C  0.25718944  0.64888751  0.71810439    -0.19800
C559        C  0.26754665  0.62034835  0.69864457    -0.25100
C560        C  0.24392214  0.60096698  0.67961251     0.27600
H561        H  0.17206656  0.64654559  0.69898081     0.13400
N562        N  0.20957463  0.68694730  0.73795915    -0.82400
H563        H  0.29428093  0.61302292  0.69861362     0.18200
N564        N  0.25485848  0.57130004  0.66061964    -0.80900
H565        H  0.19196467  0.67721345  0.75578559     0.33800
H566        H  0.22896569  0.69843244  0.75226140     0.38300
H567        H  0.28123949  0.56778116  0.66316341     0.33800
H568        H  0.24314986  0.54976435  0.67170759     0.30500
H569        H  0.14358926  0.55102567  0.72717154     0.33800
H570        H  0.18605458  0.55577342  0.72293001     0.30500
H571        H  0.15653421  0.55194126  0.56067971     0.38400
H572        H  0.17016765  0.59270184  0.56163890     0.33800
C573        C  0.43898425  0.86474769  0.62389656    -0.19900
C574        C  0.40451234  0.85673236  0.61677457     0.36300
C575        C  0.38796106  0.83074249  0.63565315    -0.25900
C576        C  0.40518577  0.81298516  0.66164357     0.02800
C577        C  0.43992808  0.82013707  0.66810076     0.27600
C578        C  0.45659724  0.84605102  0.64905543    -0.25000
N579        N  0.38620384  0.87600711  0.59126751    -0.82400
H580        H  0.36131193  0.82484411  0.63072579     0.13400
C581        C  0.38629849  0.78707424  0.68204384     0.02700
N582        N  0.45760641  0.80197869  0.69484371    -0.81000
H583        H  0.48281915  0.85286507  0.65496268     0.18200
C584        C  0.38507887  0.75323077  0.67016325    -0.25800
C585        C  0.36712529  0.72781567  0.68822347     0.36200
C586        C  0.34961775  0.73664645  0.71893929    -0.19800
C587        C  0.35084217  0.77063612  0.73082684    -0.25100
C588        C  0.36912431  0.79601953  0.71262665     0.27600
H589        H  0.39839123  0.74647278  0.64666257     0.13400
N590        N  0.36793448  0.69336168  0.67489315    -0.82400
H591        H  0.33742615  0.77733470  0.75424606     0.18200
N592        N  0.36991997  0.83089439  0.72467797    -0.80900
H593        H  0.35506874  0.69342653  0.65139760     0.33800
H594        H  0.35533428  0.67583790  0.69082362     0.38300
H595        H  0.35551226  0.83330201  0.74722594     0.33800
H596        H  0.39521193  0.83670332  0.73114678     0.30500
H597        H  0.48283601  0.81072482  0.69678463     0.33800
H598        H  0.45889244  0.77612778  0.68770270     0.30500
H599        H  0.39782453  0.87125503  0.56752490     0.38400
H600        H  0.36096573  0.86724767  0.58940557     0.33800
C601        C  0.18953939  0.06350650  0.57038789    -0.19900
C602        C  0.21398139  0.04534547  0.58976126     0.36300
C603        C  0.23256121  0.06270175  0.61532481    -0.25900
C604        C  0.22702307  0.09770930  0.62176285     0.02800
C605        C  0.20146570  0.11542896  0.60355152     0.27600
C606        C  0.18298035  0.09813779  0.57795474    -0.25000
N607        N  0.22149301  0.01012110  0.58174330    -0.82400
H608        H  0.25244310  0.04932499  0.62927583     0.13400
C609        C  0.24966480  0.11620212  0.64592246     0.02700
N610        N  0.19540462  0.15122382  0.61027640    -0.81000
H611        H  0.16454939  0.11210861  0.56263130     0.18200
C612        C  0.27364296  0.13982255  0.63283757    -0.25800
C613        C  0.29527481  0.15839344  0.65473145     0.36200
C614        C  0.29245778  0.15340114  0.69062268    -0.19800
C615        C  0.26851646  0.12971379  0.70357297    -0.25100
C616        C  0.24730452  0.11101649  0.68167841     0.27600
H617        H  0.27562696  0.14373455  0.60533084     0.13400
N618        N  0.31977649  0.18154948  0.63963256    -0.82400
H619        H  0.26617617  0.12595412  0.73108329     0.18200
N620        N  0.22302663  0.08758766  0.69642983    -0.80900
H621        H  0.30617386  0.20126300  0.62761405     0.33800
H622        H  0.33517046  0.19298009  0.65822075     0.38300
H623        H  0.19856663  0.09468809  0.68834041     0.33800
H624        H  0.22819939  0.06292051  0.68727638     0.30500
H625        H  0.17602110  0.16061154  0.59440777     0.33800
H626        H  0.18644627  0.15331372  0.63552252     0.30500
H627        H  0.19974576  0.99556843  0.58768785     0.38400
H628        H  0.24109676  0.00092309  0.59744464     0.33800
C629        C  0.27157234  0.22151528  0.71215261    -0.19900
C630        C  0.27835486  0.24736111  0.68728871     0.36300
C631        C  0.25105663  0.26219323  0.66955381    -0.25900
C632        C  0.21736526  0.25165930  0.67569194     0.02800
C633        C  0.21050976  0.22559240  0.69990623     0.27600
C634        C  0.23776621  0.21076819  0.71799906    -0.25000
N635        N  0.31243122  0.25833624  0.67838823    -0.82400
H636        H  0.25618046  0.28201208  0.65060332     0.13400
C637        C  0.18941663  0.26877954  0.65701835     0.02700
N638        N  0.17596130  0.21424617  0.70580691    -0.81000
H639        H  0.23275695  0.19049982  0.73646955     0.18200
C640        C  0.17379579  0.25191920  0.62941756    -0.25800
C641        C  0.14614076  0.26700223  0.61212273     0.36200
C642        C  0.13449767  0.29963627  0.62250678    -0.19800
C643        C  0.15074491  0.31685744  0.64950325    -0.25100
C644        C  0.17812254  0.30161987  0.66702883     0.27600
H645        H  0.18283845  0.22674028  0.62185086     0.13400
N646        N  0.12962916  0.24930044  0.58433294    -0.82400
H647        H  0.14112878  0.34162029  0.65773318     0.18200
N648        N  0.19409541  0.31893497  0.69537177    -0.80900
H649        H  0.14176344  0.22587937  0.57950002     0.33800
H650        H  0.10470005  0.24333696  0.59216939     0.38300
H651        H  0.18280776  0.34292549  0.69940448     0.33800
H652        H  0.18936890  0.30439010  0.71750536     0.30500
H653        H  0.17537169  0.19454742  0.72410488     0.33800
H654        H  0.16240824  0.23485100  0.71631530     0.30500
H655        H  0.33092283  0.24632341  0.69342026     0.38400
H656        H  0.31422087  0.28467980  0.68326351     0.33800
C657        C  0.35980779  0.12965333  0.71192644    -0.19900
C658        C  0.38830143  0.13581769  0.69013602     0.36300
C659        C  0.40365644  0.10813129  0.67328256    -0.25900
C660        C  0.39127280  0.07461693  0.67758222     0.02800
C661        C  0.36261474  0.06861388  0.69900416     0.27600
C662        C  0.34731839  0.09612579  0.71607871    -0.25000
N663        N  0.40200498  0.16964707  0.68400755    -0.82400
H664        H  0.42556972  0.11278140  0.65675271     0.13400
C665        C  0.40906126  0.04622288  0.65996001     0.02700
N666        N  0.34804148  0.03504016  0.70313930    -0.81000
H667        H  0.32540444  0.09136808  0.73253543     0.18200
C668        C  0.42763211  0.02271619  0.67966443    -0.25800
C669        C  0.44434317  0.99495182  0.66416748     0.36200
C670        C  0.44264876  0.99087766  0.62819546    -0.19800
C671        C  0.42532362  0.01526154  0.60824990    -0.25100
C672        C  0.40827910  0.04295400  0.62389945     0.27600
H673        H  0.42883984  0.02596178  0.70727706     0.13400
N674        N  0.46264189  0.97047512  0.68477906    -0.82400
H675        H  0.42394051  0.01186592  0.58067227     0.18200
N676        N  0.38971292  0.06740898  0.60352973    -0.80900
H677        H  0.46115237  0.97696416  0.71078890     0.33800
H678        H  0.48846359  0.97198951  0.67782856     0.38300
H679        H  0.39170097  0.06137932  0.57744490     0.33800
H680        H  0.36382476  0.06520842  0.61007159     0.30500
H681        H  0.36632587  0.01884228  0.71398899     0.33800
H682        H  0.34164140  0.02561757  0.67886164     0.30500
H683        H  0.38847267  0.18862119  0.69713141     0.38400
H684        H  0.42698048  0.17012101  0.69350241     0.33800
C685        C  0.45779557  0.29399680  0.93869997    -0.19900
C686        C  0.46583649  0.26070250  0.92698715     0.36300
C687        C  0.44757575  0.24679330  0.89923885    -0.25900
C688        C  0.42149275  0.26558456  0.88334699     0.02800
C689        C  0.41392853  0.29909600  0.89456350     0.27600
C690        C  0.43232414  0.31308622  0.92213628    -0.25000
N691        N  0.49203859  0.24106604  0.94374442    -0.82400
H692        H  0.45329022  0.22110975  0.89023993     0.13400
C693        C  0.40184509  0.24967568  0.85522373     0.02700
N694        N  0.38686996  0.31822542  0.87859916    -0.81000
H695        H  0.42593125  0.33843927  0.93163588     0.18200
C696        C  0.37280477  0.23008898  0.86361622    -0.25800
C697        C  0.35298690  0.21446128  0.83807427     0.36200
C698        C  0.36233685  0.21899613  0.80322379    -0.19800
C699        C  0.39138413  0.23860879  0.79493341    -0.25100
C700        C  0.41145106  0.25378986  0.82042551     0.27600
H701        H  0.36563552  0.22671494  0.89033531     0.13400
N702        N  0.32431740  0.19370019  0.84855470    -0.82400
H703        H  0.39873143  0.24183602  0.76823576     0.18200
N704        N  0.44113793  0.27313599  0.80996340    -0.80900
H705        H  0.30656814  0.20988907  0.86043283     0.33800
H706        H  0.31202347  0.18261327  0.82758113     0.38300
H707        H  0.45803507  0.25606588  0.79805822     0.33800
H708        H  0.45413910  0.28350890  0.83088572     0.30500
H709        H  0.38403694  0.34218007  0.89037888     0.33800
H710        H  0.39412784  0.32303904  0.85317119     0.30500
H711        H  0.51524300  0.25400448  0.94003704     0.38400
H712        H  0.49465105  0.21700194  0.93213312     0.33800
C713        C  0.78962137  0.64867140  0.19180418    -0.19900
C714        C  0.78493199  0.66076519  0.15778978     0.36300
C715        C  0.76473677  0.64151155  0.13508772    -0.25900
C716        C  0.75049671  0.60986866  0.14497750     0.02800
C717        C  0.75663286  0.59691519  0.17809748     0.27600
C718        C  0.77572405  0.61666259  0.20131803    -0.25000
N719        N  0.80027322  0.69202591  0.14534109    -0.82400
H720        H  0.76054204  0.65105978  0.10927874     0.13400
C721        C  0.73016630  0.59010655  0.11982052     0.02700
N722        N  0.74301304  0.56403457  0.18811075    -0.81000
H723        H  0.77952722  0.60726447  0.22724369     0.18200
C724        C  0.74698965  0.56693396  0.09819535    -0.25800
C725        C  0.72947376  0.54993357  0.07188219     0.36200
C726        C  0.69429757  0.55706702  0.06650047    -0.19800
C727        C  0.67703732  0.57878182  0.08949143    -0.25100
C728        C  0.69469341  0.59530424  0.11630670     0.27600
H729        H  0.77416385  0.56249703  0.10141559     0.13400
N730        N  0.74839977  0.52635501  0.05068986    -0.82400
H731        H  0.65017875  0.58420919  0.08541385     0.18200
N732        N  0.67716824  0.61840620  0.13908586    -0.80900
H733        H  0.75794079  0.50708519  0.06674098     0.33800
H734        H  0.73256691  0.51379920  0.03319862     0.38300
H735        H  0.65122163  0.61976325  0.13280472     0.33800
H736        H  0.67843518  0.60800504  0.16382551     0.30500
H737        H  0.74948013  0.55846057  0.21354927     0.33800
H738        H  0.75492287  0.54539560  0.17293657     0.30500
H739        H  0.81599799  0.70313481  0.16384647     0.38400
H740        H  0.81638697  0.68556548  0.12486834     0.33800
C741        C  0.87748821  0.64829249  0.28326949    -0.19900
C742        C  0.86696364  0.62885113  0.31210130     0.36300
C743        C  0.89130254  0.61024278  0.33095254    -0.25900
C744        C  0.92588751  0.61067644  0.32145741     0.02800
C745        C  0.93644943  0.62986851  0.29248916     0.27600
C746        C  0.91204302  0.64836478  0.27345798    -0.25000
N747        N  0.83150915  0.62821301  0.32207177    -0.82400
H748        H  0.88337538  0.59539428  0.35318197     0.13400
C749        C  0.95096171  0.59115651  0.34226184     0.02700
N750        N  0.97192086  0.63048538  0.28266054    -0.81000
H751        H  0.91994610  0.66308762  0.25115680     0.18200
C752        C  0.96232655  0.55925968  0.33004007    -0.25800
C753        C  0.98816437  0.54092612  0.34695330     0.36200
C754        C  0.00307449  0.55493312  0.37693898    -0.19800
C755        C  0.99066350  0.58609462  0.38998216    -0.25100
C756        C  0.96486202  0.60446120  0.37306038     0.27600
H757        H  0.95165122  0.54895291  0.30654319     0.13400
N758        N  0.99952895  0.50909377  0.33209969    -0.82400
H759        H  0.00232232  0.59710083  0.41267854     0.18200
N760        N  0.95436379  0.63685816  0.38732895    -0.80900
H761        H  0.97880107  0.49205679  0.33254066     0.33800
H762        H  0.01873166  0.49764072  0.34667702     0.38300
H763        H  0.97549912  0.65336192  0.38647866     0.33800
H764        H  0.93524073  0.64850062  0.37280797     0.30500
H765        H  0.97544729  0.64560996  0.26069999     0.33800
H766        H  0.98549897  0.64246427  0.30240907     0.30500
H767        H  0.81778124  0.61647400  0.30228576     0.38400
H768        H  0.82799177  0.61295308  0.34393439     0.33800
C769        C  0.78805714  0.73933474  0.28382712    -0.19900
C770        C  0.79992147  0.77353047  0.28641554     0.36300
C771        C  0.78195332  0.79699437  0.30712661    -0.25900
C772        C  0.75261458  0.78697314  0.32555586     0.02800
C773        C  0.74099847  0.75273662  0.32327334     0.27600
C774        C  0.75882238  0.72933765  0.30241116    -0.25000
N775        N  0.83056793  0.78411793  0.26885381    -0.82400
H776        H  0.79076957  0.82335606  0.30882515     0.13400
C777        C  0.73403526  0.81292211  0.34648967     0.02700
N778        N  0.71154875  0.74175280  0.34264844    -0.81000
H779        H  0.75055510  0.70280353  0.30149510     0.18200
C780        C  0.69978684  0.82037426  0.33881796    -0.25800
C781        C  0.68234703  0.84713645  0.35535030     0.36200
C782        C  0.69961529  0.86690757  0.38044108    -0.19800
C783        C  0.73341717  0.85856658  0.38911469    -0.25100
C784        C  0.75076598  0.83162990  0.37253624     0.27600
H785        H  0.68689673  0.80619437  0.31870318     0.13400
N786        N  0.64797436  0.85453061  0.34456454    -0.82400
H787        H  0.74664163  0.87390196  0.40813911     0.18200
N788        N  0.78550673  0.82361965  0.38148085    -0.80900
H789        H  0.63280994  0.83324522  0.35085210     0.33800
H790        H  0.63758897  0.87543920  0.35762108     0.38300
H791        H  0.79418305  0.83988818  0.40095640     0.33800
H792        H  0.78573735  0.79868989  0.39153682     0.30500
H793        H  0.70630815  0.71580418  0.33806859     0.33800
H794        H  0.71760036  0.74384258  0.36869797     0.30500
H795        H  0.82596368  0.78311677  0.24252769     0.38400
H796        H  0.83644643  0.80970634  0.27453208     0.33800
C797        C  0.63332750  0.04867182  0.12523040    -0.19900
C798        C  0.64592417  0.03908120  0.15775057     0.36300
C799        C  0.67213760  0.05865936  0.17278772    -0.25900
C800        C  0.68512489  0.08794829  0.15621153     0.02800
C801        C  0.67326951  0.09691800  0.12328343     0.27600
C802        C  0.64753631  0.07696930  0.10796704    -0.25000
N803        N  0.63162744  0.00994517  0.17553438    -0.82400
H804        H  0.68168576  0.05183142  0.19798957     0.13400
C805        C  0.71078103  0.10934681  0.17398032     0.02700
N806        N  0.68705252  0.12650462  0.10586832    -0.81000
H807        H  0.63725201  0.08450045  0.08326738     0.18200
C808        C  0.74508857  0.09942911  0.17204358    -0.25800
C809        C  0.77072335  0.11837829  0.18839346     0.36200
C810        C  0.76161716  0.14763825  0.20803893    -0.19800
C811        C  0.72731640  0.15794985  0.20947692    -0.25100
C812        C  0.70167517  0.13906998  0.19286146     0.27600
H813        H  0.75206029  0.07682080  0.15739805     0.13400
N814        N  0.80558316  0.10725572  0.18425774    -0.82400
H815        H  0.72033144  0.18037158  0.22438244     0.18200
N816        N  0.66689290  0.15067026  0.19601131    -0.80900
H817        H  0.81123677  0.10760856  0.15799130     0.33800
H818        H  0.82277064  0.12439341  0.19546039     0.38300
H819        H  0.66008801  0.14909486  0.22196561     0.33800
H820        H  0.64990628  0.13481662  0.18278884     0.30500
H821        H  0.67586184  0.12927954  0.08167421     0.33800
H822        H  0.68019392  0.14825249  0.11999832     0.30500
H823        H  0.60624660  0.01571724  0.18174053     0.38400
H824        H  0.64425175  0.00599367  0.19883591     0.33800
C825        C  0.78369878  0.21832263  0.19102694    -0.19900
C826        C  0.78417165  0.21079669  0.15568648     0.36300
C827        C  0.76826407  0.23323306  0.13253792    -0.25900
C828        C  0.75188029  0.26314458  0.14402838     0.02800
C829        C  0.75111999  0.27063404  0.17954216     0.27600
C830        C  0.76681331  0.24796720  0.20252894    -0.25000
N831        N  0.80083178  0.18065695  0.14308740    -0.82400
H832        H  0.76866974  0.22726563  0.10535236     0.13400
C833        C  0.73514645  0.28531635  0.11826566     0.02700
N834        N  0.73581138  0.30132632  0.19312313    -0.81000
H835        H  0.76647551  0.25391245  0.22971798     0.18200
C836        C  0.69935739  0.28553315  0.11621175    -0.25800
C837        C  0.68264418  0.30312920  0.08958159     0.36200
C838        C  0.70237629  0.32052882  0.06451526    -0.19800
C839        C  0.73813973  0.32166398  0.06771114    -0.25100
C840        C  0.75473198  0.30427877  0.09444846     0.27600
H841        H  0.68455813  0.27094159  0.13480271     0.13400
N842        N  0.64602876  0.30138853  0.08664704    -0.82400
H843        H  0.75318905  0.33506414  0.04843114     0.18200
N844        N  0.79139565  0.30492663  0.09705807    -0.80900
H845        H  0.63576616  0.28528525  0.10560780     0.33800
H846        H  0.63642252  0.32586753  0.09179304     0.38300
H847        H  0.80206310  0.31990612  0.07741114     0.33800
H848        H  0.79749093  0.31709524  0.12016238     0.30500
H849        H  0.71480278  0.29389878  0.20811075     0.33800
H850        H  0.72659984  0.31737092  0.17378634     0.30500
H851        H  0.78269259  0.16594717  0.12996495     0.38400
H852        H  0.81944810  0.18835750  0.12529499     0.33800
C853        C  0.77982508  0.12162893  0.27481467    -0.19900
C854        C  0.79216849  0.08755063  0.27775285     0.36300
C855        C  0.77279309  0.06323475  0.29611864    -0.25900
C856        C  0.74084945  0.07158389  0.31036710     0.02800
C857        C  0.72748374  0.10493541  0.30547644     0.27600
C858        C  0.74716647  0.12941956  0.28787803    -0.25000
N859        N  0.82405609  0.07672654  0.26285946    -0.82400
H860        H  0.78283483  0.03750704  0.29942009     0.13400
C861        C  0.72296992  0.04540744  0.33150355     0.02700
N862        N  0.69446123  0.11508321  0.31830012    -0.81000
H863        H  0.73728794  0.15529398  0.28530758     0.18200
C864        C  0.73290092  0.04084052  0.36579849    -0.25800
C865        C  0.71825048  0.01474351  0.38618805     0.36200
C866        C  0.69316530  0.99305629  0.37189147    -0.19800
C867        C  0.68265751  0.99821144  0.33782948    -0.25100
C868        C  0.69731308  0.02426300  0.31743315     0.27600
H869        H  0.75274183  0.05717794  0.37634066     0.13400
N870        N  0.72994936  0.00899903  0.42066764    -0.82400
H871        H  0.66384083  0.98099535  0.32681001     0.18200
N872        N  0.68733878  0.02843844  0.28216605    -0.80900
H873        H  0.74917795  0.02659471  0.42697271     0.33800
H874        H  0.70942920  0.01385783  0.43723956     0.38300
H875        H  0.66874837  0.01026710  0.27557036     0.33800
H876        H  0.67581846  0.05251992  0.27972730     0.30500
H877        H  0.69834051  0.13432095  0.33658876     0.33800
H878        H  0.68190275  0.09496897  0.33087458     0.30500
H879        H  0.83559748  0.09651839  0.24893358     0.38400
H880        H  0.81856280  0.05741648  0.24506214     0.33800
C881        C  0.27795783  0.62707914  0.21734093    -0.19900
C882        C  0.25466429  0.63355481  0.19030671     0.36300
C883        C  0.23773229  0.60588689  0.17482536    -0.25900
C884        C  0.24258759  0.57206870  0.18622048     0.02800
C885        C  0.26602511  0.56558053  0.21316348     0.27600
C886        C  0.28331593  0.59321008  0.22831104    -0.25000
N887        N  0.24750899  0.66762712  0.17790028    -0.82400
H888        H  0.22001691  0.61090573  0.15406402     0.13400
C889        C  0.22303714  0.54423953  0.16918177     0.02700
N890        N  0.27302685  0.53156058  0.22579149    -0.81000
H891        H  0.30128895  0.58819151  0.24883189     0.18200
C892        C  0.23162815  0.53572229  0.13521183    -0.25800
C893        C  0.21534145  0.50837596  0.11824383     0.36200
C894        C  0.18999842  0.48926065  0.13568975    -0.19800
C895        C  0.18082167  0.49822187  0.16934071    -0.25100
C896        C  0.19667188  0.52573053  0.18621940     0.27600
H897        H  0.25172554  0.54999616  0.12221952     0.13400
N898        N  0.22557125  0.49886772  0.08405998    -0.82400
H899        H  0.16143224  0.48337136  0.18276860     0.18200
N900        N  0.18529576  0.53403764  0.22038725    -0.80900
H901        H  0.24542606  0.51474654  0.07536591     0.33800
H902        H  0.20482149  0.50333359  0.06781700     0.38300
H903        H  0.19174552  0.51350705  0.23643718     0.33800
H904        H  0.19750848  0.55584282  0.23000668     0.30500
H905        H  0.29897691  0.52665936  0.22148621     0.33800
H906        H  0.25964897  0.51280167  0.21223356     0.30500
H907        H  0.25974804  0.68633462  0.19252560     0.38400
H908        H  0.22127023  0.67198483  0.18090692     0.33800
C909        C  0.34425838  0.64860471  0.19182078    -0.19900
C910        C  0.34154371  0.65690125  0.15651031     0.36300
C911        C  0.35786202  0.63592578  0.13220190    -0.25900
C912        C  0.37706768  0.60724178  0.14233472     0.02800
C913        C  0.37992840  0.59911703  0.17741655     0.27600
C914        C  0.36333261  0.61976528  0.20176642    -0.25000
N915        N  0.32307384  0.68636142  0.14439905    -0.82400
H916        H  0.35591858  0.64229491  0.10516847     0.13400
C917        C  0.39467252  0.58626894  0.11598012     0.02700
N918        N  0.39966646  0.56990428  0.18809002    -0.81000
H919        H  0.36534501  0.61349222  0.22882173     0.18200
C920        C  0.43047248  0.58742612  0.11370128    -0.25800
C921        C  0.44807399  0.56946447  0.08778231     0.36200
C922        C  0.42937994  0.54957924  0.06402625    -0.19800
C923        C  0.39354857  0.54764512  0.06710704    -0.25100
C924        C  0.37599488  0.56585265  0.09282362     0.27600
H925        H  0.44459525  0.60331293  0.13158926     0.13400
N926        N  0.48449272  0.57325498  0.08412174    -0.82400
H927        H  0.37917286  0.53281447  0.04853093     0.18200
N928        N  0.33929028  0.56436009  0.09510610    -0.80900
H929        H  0.49392493  0.59076851  0.10210837     0.33800
H930        H  0.49560008  0.54962408  0.09011017     0.38300
H931        H  0.32935508  0.54846916  0.07592766     0.33800
H932        H  0.33293331  0.55291245  0.11860259     0.30500
H933        H  0.39949433  0.56767224  0.21485646     0.33800
H934        H  0.38761490  0.54790567  0.17855016     0.30500
H935        H  0.31251651  0.70022426  0.16466527     0.38400
H936        H  0.30266870  0.67745651  0.12956493     0.33800
C937        C  0.25768581  0.65013066  0.28496205    -0.19900
C938        C  0.22264756  0.65627743  0.28005934     0.36300
C939        C  0.19847879  0.63661632  0.29826725    -0.25900
C940        C  0.20886873  0.61049456  0.32081813     0.02800
C941        C  0.24412499  0.60362565  0.32495599     0.27600
C942        C  0.26803734  0.62382549  0.30722976    -0.25000
N943        N  0.21156008  0.68218675  0.25651216    -0.82400
H944        H  0.17146368  0.64168927  0.29476062     0.13400
C945        C  0.18235439  0.59121455  0.33994399     0.02700
N946        N  0.25660604  0.57659152  0.34677781    -0.81000
H947        H  0.29505325  0.61847467  0.31028360     0.18200
C948        C  0.16691694  0.56259477  0.32461213    -0.25800
C949        C  0.14013754  0.54498680  0.34125839     0.36200
C950        C  0.12903149  0.55620093  0.37386242    -0.19800
C951        C  0.14523459  0.58416859  0.38963820    -0.25100
C952        C  0.17197956  0.60180222  0.37294741     0.27600
H953        H  0.17532939  0.55451055  0.29933903     0.13400
N954        N  0.12393629  0.51601159  0.32514407    -0.82400
H955        H  0.13621134  0.59289173  0.41448099     0.18200
N956        N  0.18792639  0.63106928  0.38875917    -0.80900
H957        H  0.13565064  0.51064306  0.30157352     0.33800
H958        H  0.09869205  0.52282127  0.31964810     0.38300
H959        H  0.17691269  0.63591355  0.41277340     0.33800
H960        H  0.21353254  0.62487129  0.39324079     0.30500
H961        H  0.26936293  0.55892438  0.33113703     0.33800
H962        H  0.23672050  0.56313649  0.35871147     0.30500
H963        H  0.19657562  0.69976926  0.27011177     0.38400
H964        H  0.19587656  0.67041018  0.23828118     0.33800
C965        C  0.35357864  0.73488088  0.28639325    -0.19900
C966        C  0.38411048  0.72442925  0.30310408     0.36300
C967        C  0.40374029  0.74887216  0.32080542    -0.25900
C968        C  0.39342659  0.78322978  0.32277177     0.02800
C969        C  0.36277122  0.79352998  0.30689395     0.27600
C970        C  0.34313235  0.76924308  0.28889378    -0.25000
N971        N  0.39591611  0.68942261  0.30292886    -0.82400
H972        H  0.42726661  0.74098493  0.33313872     0.13400
C973        C  0.41536596  0.80870039  0.34050115     0.02700
N974        N  0.35206065  0.82878736  0.30869038    -0.81000
H975        H  0.31963277  0.77714307  0.27655626     0.18200
C976        C  0.43854598  0.82819834  0.32098897    -0.25800
C977        C  0.45691121  0.85545013  0.33584539     0.36200
C978        C  0.45186881  0.86332644  0.37086478    -0.19800
C979        C  0.43017561  0.84251560  0.39087208    -0.25100
C980        C  0.41167167  0.81527829  0.37593280     0.27600
H981        H  0.44147712  0.82276436  0.29384630     0.13400
N982        N  0.47994901  0.87587657  0.31537258    -0.82400
H983        H  0.42630286  0.84869698  0.41773060     0.18200
N984        N  0.38859494  0.79481204  0.39632341    -0.80900
H985        H  0.48065066  0.86688577  0.29009119     0.33800
H986        H  0.50453632  0.87259536  0.32532387     0.38300
H987        H  0.38897532  0.80285861  0.42192607     0.33800
H988        H  0.36379373  0.79915693  0.38738040     0.30500
H989        H  0.32922960  0.83228224  0.29523918     0.33800
H990        H  0.34671208  0.83434988  0.33440792     0.30500
H991        H  0.37914511  0.67309807  0.29002826     0.38400
H992        H  0.39631575  0.68086512  0.32839351     0.33800
C993        C  0.28542912  0.14173127  0.30577778    -0.19900
C994        C  0.25317876  0.12614229  0.30129312     0.36300
C995        C  0.23616723  0.11160049  0.32944933    -0.25900
C996        C  0.25085508  0.11203589  0.36213704     0.02800
C997        C  0.28339364  0.12746501  0.36684841     0.27600
C998        C  0.30027927  0.14211676  0.33850468    -0.25000
N999        N  0.23797743  0.12422831  0.26796022    -0.82400
H1000       H  0.21139489  0.09960531  0.32572089     0.13400
C1001       C  0.23155833  0.09583991  0.39053623     0.00300
N1002       N  0.29992340  0.12895737  0.39975708    -0.81000
H1003       H  0.32499464  0.15423895  0.34209046     0.18200
C1004       C  0.24131446  0.06320104  0.40211397    -0.25800
C1005       C  0.22356024  0.04712618  0.42905843     0.36200
C1006       C  0.19547004  0.06372300  0.44429087    -0.19800
C1007       C  0.18537638  0.09617467  0.43244010    -0.25100
C1008       C  0.20320181  0.11245428  0.40553116     0.27600
H1009       H  0.26306836  0.05043476  0.39048910     0.13400
N1010       N  0.23469445  0.01445134  0.44169549    -0.82400
H1011       H  0.16409504  0.10907442  0.44477435     0.18200
N1012       N  0.19298550  0.14584904  0.39359040    -0.80900
H1013       H  0.26008216  0.01698324  0.44968771     0.33800
H1014       H  0.23411919  0.99699672  0.42132634     0.38300
H1015       H  0.17159338  0.15446294  0.40725831     0.33800
H1016       H  0.21289210  0.16298885  0.39898143     0.30500
H1017       H  0.30257625  0.15487378  0.40628282     0.33800
H1018       H  0.28502105  0.11775346  0.41905265     0.30500
H1019       H  0.21365779  0.13521992  0.26952973     0.38400
H1020       H  0.23463149  0.09828703  0.26187740     0.33800
C1021       C  0.50794123  0.05100265  0.12663388    -0.19900
C1022       C  0.48811419  0.07484105  0.10813989     0.36300
C1023       C  0.46165948  0.09243888  0.12515080    -0.25900
C1024       C  0.45538782  0.08696971  0.16024554     0.02800
C1025       C  0.47510553  0.06274478  0.17862053     0.27600
C1026       C  0.50105433  0.04503140  0.16148277    -0.25000
N1027       N  0.49560091  0.08177484  0.07261410    -0.82400
H1028       H  0.44638333  0.11104460  0.11129790     0.13400
C1029       C  0.42805269  0.10662030  0.17723081     0.02700
N1030       N  0.46976465  0.05557125  0.21453320    -0.81000
H1031       H  0.51671394  0.02706075  0.17575103     0.18200
C1032       C  0.39480592  0.09333484  0.17690207    -0.25800
C1033       C  0.36851505  0.10976541  0.19485638     0.36200
C1034       C  0.37561574  0.13980957  0.21362970    -0.19800
C1035       C  0.40890425  0.15335127  0.21370177    -0.25100
C1036       C  0.43529680  0.13706551  0.19539936     0.27600
H1037       H  0.38934389  0.06992540  0.16288756     0.13400
N1038       N  0.33447541  0.09617220  0.19357844    -0.82400
H1039       H  0.41418816  0.17659034  0.22802410     0.18200
N1040       N  0.46925636  0.15131243  0.19491946    -0.80900
H1041       H  0.33522354  0.07082637  0.20246286     0.33800
H1042       H  0.32685429  0.09553830  0.16787769     0.38300
H1043       H  0.47004457  0.17422073  0.20889788     0.33800
H1044       H  0.48535043  0.13403849  0.20753294     0.30500
H1045       H  0.49178394  0.06325566  0.22764224     0.33800
H1046       H  0.44952305  0.06964158  0.22485728     0.30500
H1047       H  0.51995635  0.09289684  0.07134205     0.38400
H1048       H  0.47857731  0.09997184  0.06281200     0.33800
C1049       C  0.19074362  0.36262053  0.13197297    -0.19900
C1050       C  0.21611490  0.34546219  0.11282419     0.36300
C1051       C  0.23432218  0.31844050  0.12813555    -0.25900
C1052       C  0.22727183  0.30811259  0.16197686     0.02800
C1053       C  0.20094117  0.32440721  0.18064121     0.27600
C1054       C  0.18311255  0.35179076  0.16551948    -0.25000
N1055       N  0.22411615  0.35641239  0.07842405    -0.82400
H1056       H  0.25498655  0.30629629  0.11411736     0.13400
C1057       C  0.24875795  0.28147985  0.17832777     0.02700
N1058       N  0.19307345  0.31355866  0.21511760    -0.81000
H1059       H  0.16380789  0.36537058  0.18018195     0.18200
C1060       C  0.26853594  0.29033581  0.20709355    -0.25800
C1061       C  0.28765277  0.26541497  0.22459030     0.36200
C1062       C  0.28706182  0.23124805  0.21310755    -0.19800
C1063       C  0.26859574  0.22272949  0.18350063    -0.25100
C1064       C  0.24904410  0.24725064  0.16636050     0.27600
H1065       H  0.26875378  0.31662426  0.21622811     0.13400
N1066       N  0.30756211  0.27477449  0.25391481    -0.82400
H1067       H  0.26795200  0.19635835  0.17468505     0.18200
N1068       N  0.22831134  0.23623637  0.13816049    -0.80900
H1069       H  0.32518711  0.29355481  0.24624275     0.33800
H1070       H  0.29114568  0.28576937  0.27206248     0.38300
H1071       H  0.23611329  0.24916679  0.11595963     0.33800
H1072       H  0.20286176  0.24259037  0.14345345     0.30500
H1073       H  0.17324072  0.32834593  0.22539755     0.33800
H1074       H  0.18404175  0.28827388  0.21392558     0.30500
H1075       H  0.24320128  0.34090263  0.06778604     0.38400
H1076       H  0.23427440  0.38124931  0.07980917     0.33800
C1077       C  0.35374278  0.20740647  0.19055698    -0.19900
C1078       C  0.35348276  0.19798059  0.15544874     0.36300
C1079       C  0.37498442  0.21543455  0.13226961    -0.25900
C1080       C  0.39685685  0.24189623  0.14323722     0.02800
C1081       C  0.39689347  0.25147804  0.17809749     0.27600
C1082       C  0.37512813  0.23433348  0.20132026    -0.25000
N1083       N  0.33167126  0.17130450  0.14234643    -0.82400
H1084       H  0.37462233  0.20829360  0.10537944     0.13400
C1085       C  0.41929562  0.25953342  0.11777402     0.02700
N1086       N  0.41951840  0.27812038  0.18983086    -0.81000
H1087       H  0.37552380  0.24127149  0.22826322     0.18200
C1088       C  0.41406490  0.29447255  0.11053973    -0.25800
C1089       C  0.43259685  0.31119208  0.08428132     0.36200
C1090       C  0.45713316  0.29264599  0.06521864    -0.19800
C1091       C  0.46338320  0.25807000  0.07350879    -0.25100
C1092       C  0.44487547  0.24139371  0.09979574     0.27600
H1093       H  0.39445327  0.30832843  0.12450613     0.13400
N1094       N  0.42552121  0.34644827  0.07587330    -0.82400
H1095       H  0.48209066  0.24382619  0.05870207     0.18200
N1096       N  0.45147263  0.20598366  0.10798036    -0.80900
H1097       H  0.40686680  0.35640378  0.09236825     0.33800
H1098       H  0.41511574  0.34700596  0.05117684     0.38300
H1099       H  0.47102793  0.19630082  0.09239976     0.33800
H1100       H  0.46044522  0.20502912  0.13323400     0.30500
H1101       H  0.41640831  0.28208939  0.21620971     0.33800
H1102       H  0.44458860  0.26950025  0.18622507     0.30500
H1103       H  0.31657995  0.16045490  0.16168546     0.38400
H1104       H  0.34738626  0.15175276  0.13291678     0.33800
C1105       C  0.35242041  0.11657455  0.28102347    -0.19900
C1106       C  0.34063420  0.08234137  0.28524725     0.36300
C1107       C  0.36007743  0.05917390  0.30469557    -0.25900
C1108       C  0.39119832  0.06903942  0.31969251     0.02800
C1109       C  0.40308791  0.10296288  0.31532731     0.27600
C1110       C  0.38355885  0.12633670  0.29613834    -0.25000
N1111       N  0.30986807  0.06981741  0.26950552    -0.82400
H1112       H  0.35111285  0.03294509  0.30760262     0.13400
C1113       C  0.41140765  0.04321660  0.33910380     0.02700
N1114       N  0.43479221  0.11357662  0.33065142    -0.81000
H1115       H  0.39250102  0.15256243  0.29313543     0.18200
C1116       C  0.44403388  0.03385980  0.32714092    -0.25800
C1117       C  0.46263769  0.00741035  0.34316507     0.36200
C1118       C  0.44834221  0.99024894  0.37172409    -0.19800
C1119       C  0.41632390  0.00039263  0.38442195    -0.25100
C1120       C  0.39771596  0.02681276  0.36845903     0.27600
H1121       H  0.45445003  0.04644713  0.30453944     0.13400
N1122       N  0.49525958  0.99688288  0.32974636    -0.82400
H1123       H  0.40536281  0.98682591  0.40618465     0.18200
N1124       N  0.36469874  0.03663750  0.38147331    -0.80900
H1125       H  0.50191557  0.01170639  0.30829910     0.33800
H1126       H  0.51361363  0.00196613  0.34854108     0.38300
H1127       H  0.35819116  0.02191352  0.40303006     0.33800
H1128       H  0.36649996  0.06211744  0.38976261     0.30500
H1129       H  0.44003608  0.13929418  0.32480539     0.33800
H1130       H  0.43175091  0.11212819  0.35730799     0.30500
H1131       H  0.29834957  0.08858995  0.25436180     0.38400
H1132       H  0.29265549  0.06344319  0.28913494     0.33800
C1133       C  0.01455198  0.29851878  0.36624094    -0.19900
C1134       C  0.01900355  0.27751246  0.33668148     0.36300
C1135       C  0.99098047  0.25977316  0.32299499    -0.25900
C1136       C  0.95716049  0.26816343  0.33177936     0.02800
C1137       C  0.95225176  0.29370185  0.35738687     0.27600
C1138       C  0.98066845  0.30657635  0.37578803    -0.25000
N1139       N  0.05151321  0.27525439  0.31936527    -0.82400
H1140       H  0.99609595  0.23970841  0.30457302     0.13400
C1141       C  0.92794792  0.24988037  0.31393519     0.02700
N1142       N  0.91870523  0.30707885  0.36437369    -0.81000
H1143       H  0.97587194  0.32336005  0.39731067     0.18200
C1144       C  0.89738844  0.24249228  0.33181125    -0.25800
C1145       C  0.86930925  0.22693897  0.31559933     0.36200
C1146       C  0.87322673  0.21279953  0.28226802    -0.19800
C1147       C  0.90473292  0.21740219  0.26557021    -0.25100
C1148       C  0.93043919  0.23854476  0.27932064     0.27600
H1149       H  0.89450174  0.24968922  0.35845703     0.13400
N1150       N  0.83703089  0.22792171  0.33320800    -0.82400
H1151       H  0.90874507  0.20595145  0.24069195     0.18200
N1152       N  0.95818353  0.24955860  0.25755263    -0.80900
H1153       H  0.83892776  0.21223387  0.35495662     0.33800
H1154       H  0.81711159  0.21907919  0.31788532     0.38300
H1155       H  0.95575167  0.23934676  0.23285782     0.33800
H1156       H  0.95642293  0.27624522  0.25503460     0.30500
H1157       H  0.91959412  0.32574774  0.38362964     0.33800
H1158       H  0.91031427  0.31946961  0.34210551     0.30500
H1159       H  0.05765340  0.29983044  0.31031733     0.38400
H1160       H  0.05005711  0.25933239  0.29781131     0.33800
C1161       C  0.13929696  0.29426080  0.38464551    -0.19900
C1162       C  0.14896765  0.25983043  0.39145224     0.36300
C1163       C  0.17499272  0.24471769  0.37176177    -0.25900
C1164       C  0.19163780  0.26308132  0.34559610     0.02800
C1165       C  0.18333363  0.29777080  0.33983800     0.27600
C1166       C  0.15730339  0.31310578  0.35956057    -0.25000
N1167       N  0.13230338  0.23920420  0.41727971    -0.82400
H1168       H  0.18166804  0.21809936  0.37628756     0.13400
C1169       C  0.21684349  0.24518377  0.32359852     0.02700
N1170       N  0.20038329  0.31673226  0.31303380    -0.81000
H1171       H  0.14956588  0.33923095  0.35391290     0.18200
C1172       C  0.20626029  0.23139656  0.29213444    -0.25800
C1173       C  0.22885138  0.21269615  0.27128671     0.36200
C1174       C  0.26328627  0.20847303  0.28187597    -0.19800
C1175       C  0.27374786  0.22279087  0.31327883    -0.25100
C1176       C  0.25081982  0.24081512  0.33436991     0.27600
H1177       H  0.17990662  0.23444209  0.28414225     0.13400
N1178       N  0.21539381  0.19727027  0.24068664    -0.82400
H1179       H  0.30002927  0.21961221  0.32144785     0.18200
N1180       N  0.26171026  0.25434401  0.36687495    -0.80900
H1181       H  0.20824806  0.21704543  0.22400795     0.33800
H1182       H  0.23362972  0.18227228  0.22819153     0.38300
H1183       H  0.28740194  0.24843334  0.37127394     0.33800
H1184       H  0.26014647  0.28112386  0.36549262     0.30500
H1185       H  0.19093508  0.34180781  0.31169986     0.33800
H1186       H  0.22620667  0.31873838  0.31964398     0.30500
H1187       H  0.11447811  0.25350951  0.43119556     0.38400
H1188       H  0.15093779  0.23173400  0.43496097     0.33800
C1189       C  0.50789484  0.79314640  0.87687491    -0.19900
C1190       C  0.50225248  0.75754754  0.88078762     0.36300
C1191       C  0.47485153  0.74175908  0.86378631    -0.25900
C1192       C  0.45311341  0.76097538  0.84269022     0.02800
C1193       C  0.45786120  0.79678485  0.83966296     0.27600
C1194       C  0.48515502  0.81262793  0.85704233    -0.25000
N1195       N  0.52448737  0.73739842  0.90189687    -0.82400
H1196       H  0.47085026  0.71432111  0.86658696     0.13400
C1197       C  0.42564993  0.74333671  0.82349792     0.02700
N1198       N  0.43535032  0.81668505  0.81838634    -0.81000
H1199       H  0.48963415  0.83994589  0.85389644     0.18200
C1200       C  0.39175818  0.74682514  0.83467463    -0.25800
C1201       C  0.36483245  0.73150457  0.81645107     0.36200
C1202       C  0.37211164  0.71221671  0.78666474    -0.19800
C1203       C  0.40599790  0.70886072  0.77534910    -0.25100
C1204       C  0.43281091  0.72420776  0.79351450     0.27600
H1205       H  0.38636331  0.76172505  0.85754080     0.13400
N1206       N  0.33008483  0.73536139  0.82800235    -0.82400
H1207       H  0.41156028  0.69413943  0.75241058     0.18200
N1208       N  0.46700566  0.72050690  0.78074858    -0.80900
H1209       H  0.32913577  0.74984800  0.85057091     0.33800
H1210       H  0.31698578  0.74941480  0.80935100     0.38300
H1211       H  0.48168427  0.70842230  0.79958967     0.33800
H1212       H  0.47713898  0.74502141  0.77634219     0.30500
H1213       H  0.44226742  0.84264631  0.81892687     0.33800
H1214       H  0.43863765  0.80845402  0.79303482     0.30500
H1215       H  0.50966001  0.72562753  0.92100388     0.38400
H1216       H  0.53516396  0.71807724  0.88665536     0.33800
C1217       C  0.76509753  0.71275965  0.78510613    -0.19900
C1218       C  0.72973201  0.70767954  0.77933129     0.36300
C1219       C  0.70606796  0.72627383  0.79894470    -0.25900
C1220       C  0.71688084  0.74959315  0.82409964     0.02800
C1221       C  0.75207763  0.75414702  0.83021432     0.27600
C1222       C  0.77578740  0.73589101  0.81055679    -0.25000
N1223       N  0.71691563  0.68376344  0.75436688    -0.82400
H1224       H  0.67895008  0.72246803  0.79457902     0.13400
C1225       C  0.69074400  0.76842582  0.84389372     0.02700
N1226       N  0.76430981  0.77673509  0.85648069    -0.81000
H1227       H  0.80284372  0.73970221  0.81521299     0.18200
C1228       C  0.67590424  0.75257698  0.87266643    -0.25800
C1229       C  0.64753849  0.76731283  0.88921790     0.36200
C1230       C  0.63434109  0.79866352  0.87689119    -0.19800
C1231       C  0.65023895  0.81532066  0.84914464    -0.25100
C1232       C  0.67832965  0.80034883  0.83231796     0.27600
H1233       H  0.68567293  0.72801355  0.88131971     0.13400
N1234       N  0.63180853  0.75043621  0.91814487    -0.82400
H1235       H  0.63969325  0.83924407  0.83967144     0.18200
N1236       N  0.69313472  0.81644837  0.80249723    -0.80900
H1237       H  0.64521650  0.72810393  0.92448392     0.33800
H1238       H  0.60734496  0.74253523  0.91077160     0.38300
H1239       H  0.68046747  0.83941125  0.79693096     0.33800
H1240       H  0.71835010  0.82311678  0.80832581     0.30500
H1241       H  0.75399828  0.76868921  0.87997702     0.33800
H1242       H  0.75545999  0.80152067  0.85140212     0.30500
H1243       H  0.73670803  0.67126921  0.74145080     0.38400
H1244       H  0.70350285  0.69780874  0.73591655     0.33800
C1245       C  0.29461697  0.24317486  0.78050241    -0.19900
C1246       C  0.30544314  0.27749220  0.78437348     0.36300
C1247       C  0.28671589  0.29951929  0.80594444    -0.25900
C1248       C  0.25771488  0.28772082  0.82392595     0.02800
C1249       C  0.24697756  0.25338463  0.82001283     0.27600
C1250       C  0.26535062  0.23159529  0.79806145    -0.25000
N1251       N  0.33554343  0.28965966  0.76689269    -0.82400
H1252       H  0.29471237  0.32604042  0.80879223     0.13400
C1253       C  0.23867255  0.31184083  0.84638951     0.02700
N1254       N  0.21794916  0.24062611  0.83893875    -0.81000
H1255       H  0.25749900  0.20500462  0.79543223     0.18200
C1256       C  0.20419616  0.31892461  0.83934719    -0.25800
C1257       C  0.18648238  0.34449154  0.85757970     0.36200
C1258       C  0.20353622  0.36289007  0.88355632    -0.19800
C1259       C  0.23746178  0.35467660  0.89173200    -0.25100
C1260       C  0.25516789  0.32909103  0.87354464     0.27600
H1261       H  0.19161031  0.30560440  0.81847502     0.13400
N1262       N  0.15178895  0.35292416  0.84884821    -0.82400
H1263       H  0.25053010  0.36926559  0.91143197     0.18200
N1264       N  0.29005503  0.32108304  0.88189801    -0.80900
H1265       H  0.15172573  0.37787720  0.83884237     0.33800
H1266       H  0.14289811  0.33683696  0.82932307     0.38300
H1267       H  0.29850112  0.33619160  0.90237704     0.33800
H1268       H  0.29069515  0.29556636  0.89032898     0.30500
H1269       H  0.21344125  0.21479064  0.83312960     0.33800
H1270       H  0.22409764  0.24159983  0.86503421     0.30500
H1271       H  0.33057543  0.28906514  0.74061274     0.38400
H1272       H  0.34038909  0.31532964  0.77311001     0.33800
C1273       C  0.19662909  0.48877937  0.87479379    -0.19900
C1274       C  0.21101191  0.51677766  0.89251685     0.36300
C1275       C  0.22472785  0.54451590  0.87388103    -0.25900
C1276       C  0.22419506  0.54454104  0.83784265     0.02800
C1277       C  0.20869325  0.51719940  0.82023584     0.27600
C1278       C  0.19502620  0.48955808  0.83878491    -0.25000
N1279       N  0.21308787  0.51639240  0.92922583    -0.82400
H1280       H  0.23675133  0.56558442  0.88747768     0.13400
C1281       C  0.24195545  0.57212954  0.81878239     0.02700
N1282       N  0.20712769  0.51736229  0.78349662    -0.81000
H1283       H  0.18372132  0.46821855  0.82498004     0.18200
C1284       C  0.27230905  0.56385092  0.80128645    -0.25800
C1285       C  0.29109413  0.58912914  0.78377830     0.36200
C1286       C  0.27968501  0.62330228  0.78425674    -0.19800
C1287       C  0.24904828  0.63148907  0.80118874    -0.25100
C1288       C  0.22974089  0.60630375  0.81812886     0.27600
H1289       H  0.28153591  0.53760721  0.80139827     0.13400
N1290       N  0.32145761  0.58000110  0.76531348    -0.82400
H1291       H  0.24013746  0.65782514  0.80135440     0.18200
N1292       N  0.19803106  0.61638064  0.83401053    -0.80900
H1293       H  0.31479336  0.56180524  0.74677135     0.33800
H1294       H  0.33825560  0.56827313  0.78254459     0.38300
H1295       H  0.18520346  0.59549259  0.84491687     0.33800
H1296       H  0.18208031  0.62567471  0.81461016     0.30500
H1297       H  0.21965766  0.49543818  0.77448811     0.33800
H1298       H  0.18141610  0.51557905  0.77639542     0.30500
H1299       H  0.20034293  0.53807660  0.93851197     0.38400
H1300       H  0.23885122  0.51849348  0.93605493     0.33800
C1301       C  0.62966889  0.06366794  0.88147006    -0.19900
C1302       C  0.65523192  0.04408962  0.86490212     0.36300
C1303       C  0.68183386  0.06106714  0.84719906    -0.25900
C1304       C  0.68286795  0.09704135  0.84516716     0.02800
C1305       C  0.65818966  0.11663894  0.86266157     0.27600
C1306       C  0.63192340  0.09977844  0.88076616    -0.25000
N1307       N  0.65335260  0.00719447  0.86488212    -0.82400
H1308       H  0.70125573  0.04625024  0.83397477     0.13400
C1309       C  0.71026339  0.11402530  0.82501116     0.02700
N1310       N  0.65967897  0.15355205  0.86146194    -0.81000
H1311       H  0.61244654  0.11487178  0.89359211     0.18200
C1312       C  0.70247014  0.12984465  0.79355713    -0.25800
C1313       C  0.72774358  0.14703581  0.77433012     0.36200
C1314       C  0.76178873  0.14763436  0.78664764    -0.19800
C1315       C  0.76922360  0.13198953  0.81832345    -0.25100
C1316       C  0.74380256  0.11546635  0.83772896     0.27600
H1317       H  0.67640345  0.12928059  0.78418257     0.13400
N1318       N  0.71758679  0.16450218  0.74347845    -0.82400
H1319       H  0.79519916  0.13277400  0.82794280     0.18200
N1320       N  0.75175772  0.10043045  0.87048417    -0.80900
H1321       H  0.70990532  0.14585938  0.72579342     0.33800
H1322       H  0.73788136  0.17808051  0.73243520     0.38300
H1323       H  0.77770548  0.10364316  0.87609185     0.33800
H1324       H  0.73820724  0.11404186  0.88922670     0.30500
H1325       H  0.63944255  0.16419561  0.87544747     0.33800
H1326       H  0.68219938  0.16124693  0.87369208     0.30500
H1327       H  0.63147994  0.00012356  0.85119930     0.38400
H1328       H  0.67421839  0.99674888  0.85170360     0.33800
C1329       C  0.50406816  0.05863047  0.87835138    -0.19900
C1330       C  0.48917184  0.04330567  0.84921604     0.36300
C1331       C  0.46450050  0.06160615  0.83042198    -0.25900
C1332       C  0.45513865  0.09504066  0.83994687     0.02800
C1333       C  0.46882047  0.10971082  0.86999689     0.27600
C1334       C  0.49326222  0.09132079  0.88890077    -0.25000
N1335       N  0.50010684  0.00984733  0.83815926    -0.82400
H1336       H  0.45346547  0.05035715  0.80754305     0.13400
C1337       C  0.43112894  0.11452060  0.81804547     0.02700
N1338       N  0.45800326  0.14323781  0.88099784    -0.81000
H1339       H  0.50516706  0.10312492  0.91105243     0.18200
C1340       C  0.39622961  0.10666876  0.82041901    -0.25800
C1341       C  0.37213601  0.12503313  0.80128415     0.36200
C1342       C  0.38296719  0.15168559  0.77930760    -0.19800
C1343       C  0.41789627  0.15923223  0.77628621    -0.25100
C1344       C  0.44223453  0.14091177  0.79532583     0.27600
H1345       H  0.38760980  0.08642291  0.83756685     0.13400
N1346       N  0.33652769  0.11679288  0.80440291    -0.82400
H1347       H  0.42626923  0.17954661  0.75912881     0.18200
N1348       N  0.47775222  0.14945042  0.79049029    -0.80900
H1349       H  0.33328979  0.09100661  0.79764740     0.33800
H1350       H  0.32952749  0.11938368  0.83020524     0.38300
H1351       H  0.48139035  0.17459634  0.79919525     0.33800
H1352       H  0.49372194  0.13370546  0.80500787     0.30500
H1353       H  0.46990757  0.14991234  0.90405306     0.33800
H1354       H  0.46636469  0.16106785  0.86269140     0.30500
H1355       H  0.52573928  0.01177148  0.83061527     0.38400
H1356       H  0.48644784  0.00216382  0.81643281     0.33800
C1357       C  0.94632353  0.49287898  0.87365006    -0.19900
C1358       C  0.96376720  0.51462559  0.85044276     0.36300
C1359       C  0.94563010  0.54088163  0.83348282    -0.25900
C1360       C  0.91048426  0.54584095  0.83946676     0.02800
C1361       C  0.89333510  0.52463282  0.86339947     0.27600
C1362       C  0.91136301  0.49822855  0.88003388    -0.25000
N1363       N  0.99949674  0.50931472  0.84347072    -0.82400
H1364       H  0.95872920  0.55719026  0.81504278     0.13400
C1365       C  0.89168672  0.57277690  0.81996150     0.02700
N1366       N  0.85758434  0.52979890  0.87036993    -0.81000
H1367       H  0.89795209  0.48115945  0.89754877     0.18200
C1368       C  0.86540039  0.56263288  0.79751583    -0.25800
C1369       C  0.84678358  0.58676903  0.77831489     0.36200
C1370       C  0.85488251  0.62210155  0.78137800    -0.19800
C1371       C  0.88109314  0.63214678  0.80372179    -0.25100
C1372       C  0.89925970  0.60822085  0.82337626     0.27600
H1373       H  0.85925945  0.53558682  0.79490938     0.13400
N1374       N  0.81982704  0.57445278  0.75650622    -0.82400
H1375       H  0.88679894  0.65921158  0.80682605     0.18200
N1376       N  0.92442852  0.62111413  0.84699659    -0.80900
H1377       H  0.83098475  0.55896382  0.73764889     0.33800
H1378       H  0.80775026  0.59455363  0.74365796     0.38300
H1379       H  0.91181844  0.63724094  0.86433810     0.33800
H1380       H  0.93507716  0.60159363  0.86183122     0.30500
H1381       H  0.84871683  0.51193876  0.88844027     0.33800
H1382       H  0.85499122  0.55404640  0.88158986     0.30500
H1383       H  0.00202026  0.48538259  0.83158018     0.38400
H1384       H  0.00854256  0.52761899  0.82594062     0.33800
C1385       C  0.95038759  0.36629067  0.87345316    -0.19900
C1386       C  0.95668356  0.35601437  0.83915830     0.36300
C1387       C  0.93784435  0.32873328  0.82540133    -0.25900
C1388       C  0.91311610  0.31135638  0.84502052     0.02800
C1389       C  0.90777155  0.32070349  0.87974984     0.27600
C1390       C  0.92676082  0.34792825  0.89357031    -0.25000
N1391       N  0.98130495  0.37303036  0.81739198    -0.82400
H1392       H  0.94208339  0.32140015  0.79887070     0.13400
C1393       C  0.89237528  0.28473769  0.82787210     0.02700
N1394       N  0.88270607  0.30411779  0.90133520    -0.81000
H1395       H  0.92176180  0.35596539  0.91975653     0.18200
C1396       C  0.89926410  0.25002868  0.83419248    -0.25800
C1397       C  0.88095535  0.22411166  0.81739564     0.36200
C1398       C  0.85551424  0.23334581  0.79326167    -0.19800
C1399       C  0.84820531  0.26811576  0.78751579    -0.25100
C1400       C  0.86648508  0.29397880  0.80458333     0.27600
H1401       H  0.91914681  0.24306801  0.85222522     0.13400
N1402       N  0.88910792  0.18894191  0.82528924    -0.82400
H1403       H  0.82857618  0.27505183  0.76925606     0.18200
N1404       N  0.85926551  0.32959895  0.79811296    -0.80900
H1405       H  0.88365857  0.18497306  0.85130899     0.33800
H1406       H  0.87372739  0.17171164  0.81181379     0.38300
H1407       H  0.83977123  0.33203324  0.77995941     0.33800
H1408       H  0.84994462  0.34019318  0.82095189     0.30500
H1409       H  0.86433389  0.32247889  0.90788581     0.33800
H1410       H  0.86971525  0.28458340  0.88847765     0.30500
H1411       H  0.99457570  0.39220168  0.83052911     0.38400
H1412       H  0.99961935  0.35482045  0.81027718     0.33800
C1413       C  0.85088752  0.23783098  0.21431531    -0.19900
C1414       C  0.87389743  0.22896196  0.18770406     0.36300
C1415       C  0.89095035  0.25503528  0.16946945    -0.25900
C1416       C  0.88556241  0.28966393  0.17737951     0.02800
C1417       C  0.86264632  0.29860113  0.20397265     0.27600
C1418       C  0.84553460  0.27249269  0.22233841    -0.25000
N1419       N  0.88144595  0.19345726  0.18082547    -0.82400
H1420       H  0.90866632  0.24839074  0.14907832     0.13400
C1421       C  0.90378706  0.31636441  0.15722891     0.02700
N1422       N  0.85679102  0.33413403  0.21200019    -0.81000
H1423       H  0.82784451  0.27908112  0.24275806     0.18200
C1424       C  0.88551636  0.33556545  0.13305625    -0.25800
C1425       C  0.90124600  0.36204026  0.11432397     0.36200
C1426       C  0.93607599  0.37003739  0.12060657    -0.19800
C1427       C  0.95466481  0.35000885  0.14397673    -0.25100
C1428       C  0.93887187  0.32306537  0.16228176     0.27600
H1429       H  0.85869955  0.33001257  0.12883976     0.13400
N1430       N  0.88099214  0.38038966  0.08957366    -0.82400
H1431       H  0.98121251  0.35632628  0.14892710     0.18200
N1432       N  0.95784853  0.30355917  0.18708935    -0.80900
H1433       H  0.87257688  0.36258703  0.07135866     0.33800
H1434       H  0.89558020  0.39834183  0.07596438     0.38300
H1435       H  0.98296526  0.31268801  0.18876564     0.33800
H1436       H  0.95950785  0.27833477  0.17809685     0.30500
H1437       H  0.83896984  0.33636329  0.23196010     0.33800
H1438       H  0.87979035  0.34436006  0.22110293     0.30500
H1439       H  0.85915410  0.18135250  0.17261895     0.38400
H1440       H  0.89920235  0.19132905  0.16078507     0.33800
C1441       C  0.93963013  0.49706390  0.11877513    -0.19900
C1442       C  0.95960300  0.52037326  0.13790123     0.36300
C1443       C  0.94353576  0.54826738  0.15418304    -0.25900
C1444       C  0.90806146  0.55297696  0.15176067     0.02800
C1445       C  0.88849688  0.53097755  0.13058942     0.27600
C1446       C  0.90452359  0.50315859  0.11461738    -0.25000
N1447       N  0.99570969  0.51480595  0.14193593    -0.82400
H1448       H  0.95841243  0.56549672  0.17011692     0.13400
C1449       C  0.89168297  0.57915394  0.17367954     0.02700
N1450       N  0.85247699  0.53588889  0.12488957    -0.81000
H1451       H  0.88925002  0.48556159  0.09946194     0.18200
C1452       C  0.89338279  0.61377948  0.16402952    -0.25800
C1453       C  0.87681696  0.63902163  0.18364249     0.36200
C1454       C  0.85792655  0.62916289  0.21300929    -0.19800
C1455       C  0.85720464  0.59470357  0.22330033    -0.25100
C1456       C  0.87408053  0.56949881  0.20392405     0.27600
H1457       H  0.90738417  0.62098419  0.14103256     0.13400
N1458       N  0.87884960  0.67460792  0.17386614    -0.82400
H1459       H  0.84306510  0.58749436  0.24619656     0.18200
N1460       N  0.87385193  0.53424360  0.21501598    -0.80900
H1461       H  0.89351244  0.67752992  0.15153158     0.33800
H1462       H  0.89176953  0.68770603  0.19334706     0.38300
H1463       H  0.86091047  0.53176318  0.23844775     0.33800
H1464       H  0.85986404  0.52005066  0.19714893     0.30500
H1465       H  0.83948392  0.51495746  0.13567189     0.33800
H1466       H  0.84330515  0.55797115  0.13695176     0.30500
H1467       H  0.99886889  0.49203098  0.15584010     0.38400
H1468       H  0.00662915  0.53442118  0.15661532     0.33800
C1469       C  0.63387019  0.79593401  0.11780700    -0.19900
C1470       C  0.64861253  0.81293870  0.14604347     0.36300
C1471       C  0.67542111  0.79716135  0.16399214    -0.25900
C1472       C  0.68756805  0.76472236  0.15425074     0.02800
C1473       C  0.67371720  0.74828095  0.12517279     0.27600
C1474       C  0.64671306  0.76399810  0.10731478    -0.25000
N1475       N  0.63500360  0.84527786  0.15741722    -0.82400
H1476       H  0.68619076  0.80965363  0.18634978     0.13400
C1477       C  0.71411384  0.74793342  0.17546547     0.02700
N1478       N  0.68675417  0.71549903  0.11438718    -0.81000
H1479       H  0.63490524  0.75090029  0.08585228     0.18200
C1480       C  0.70631303  0.71725138  0.19288540    -0.25800
C1481       C  0.73079926  0.70089427  0.21361005     0.36200
C1482       C  0.76373910  0.71547551  0.21659438    -0.19800
C1483       C  0.77123621  0.74632648  0.19942252    -0.25100
C1484       C  0.74682673  0.76269301  0.17885018     0.27600
H1485       H  0.68100343  0.70614241  0.19032135     0.13400
N1486       N  0.72265912  0.66921653  0.23083175    -0.82400
H1487       H  0.79687879  0.75667944  0.20057798     0.18200
N1488       N  0.75534099  0.79376510  0.16066566    -0.80900
H1489       H  0.69768419  0.66147400  0.22514613     0.33800
H1490       H  0.72339683  0.67374349  0.25722577     0.38300
H1491       H  0.78045026  0.80132007  0.16601295     0.33800
H1492       H  0.75444537  0.78833813  0.13439122     0.30500
H1493       H  0.67372031  0.70681484  0.09265183     0.33800
H1494       H  0.71227420  0.71903068  0.10700877     0.30500
H1495       H  0.63961202  0.86331385  0.13800403     0.38400
H1496       H  0.64807601  0.85395108  0.17913251     0.33800
C1497       C  0.37249930  0.71463529  0.21616964    -0.19900
C1498       C  0.36764910  0.74785495  0.20230393     0.36300
C1499       C  0.39413875  0.76346459  0.18336346    -0.25900
C1500       C  0.42504848  0.74632949  0.17756905     0.02800
C1501       C  0.42993957  0.71312780  0.19118281     0.27600
C1502       C  0.40379238  0.69780940  0.21088445    -0.25000
N1503       N  0.33590917  0.76567648  0.20770656    -0.82400
H1504       H  0.39074909  0.78911374  0.17306189     0.13400
C1505       C  0.45283651  0.76419252  0.15872021     0.02700
N1506       N  0.46145244  0.69521403  0.18491375    -0.81000
H1507       H  0.40768232  0.67257016  0.22190813     0.18200
C1508       C  0.47879538  0.78008489  0.17759089    -0.25800
C1509       C  0.50627964  0.79650397  0.16100378     0.36200
C1510       C  0.50806813  0.79658309  0.12470603    -0.19800
C1511       C  0.48136070  0.78171327  0.10577283    -0.25100
C1512       C  0.45370046  0.76536074  0.12252676     0.27600
H1513       H  0.47764294  0.77945974  0.20540622     0.13400
N1514       N  0.53265660  0.81285541  0.18083936    -0.82400
H1515       H  0.48277279  0.78173449  0.07797558     0.18200
N1516       N  0.42676364  0.74954436  0.10307003    -0.80900
H1517       H  0.52765149  0.81035438  0.20712769     0.33800
H1518       H  0.53200341  0.83913395  0.17526264     0.38300
H1519       H  0.43114613  0.75274165  0.07674934     0.33800
H1520       H  0.42752237  0.72311634  0.10789286     0.30500
H1521       H  0.46098668  0.67106883  0.19674424     0.33800
H1522       H  0.46317916  0.69074083  0.15849343     0.30500
H1523       H  0.31657246  0.75192441  0.19547529     0.38400
H1524       H  0.33666052  0.79002408  0.19620506     0.33800
C1525       C  0.94275890  0.81051102  0.43501363    -0.19900
C1526       C  0.90962060  0.81943357  0.42364099     0.36300
C1527       C  0.89417349  0.79984444  0.39789979    -0.25900
C1528       C  0.91076491  0.77141125  0.38340473     0.02800
C1529       C  0.94438712  0.76305940  0.39411847     0.27600
C1530       C  0.96006551  0.78312783  0.41946687    -0.25000
N1531       N  0.89054101  0.84743716  0.43824696    -0.82400
H1532       H  0.86863690  0.80656684  0.38946675     0.13400
C1533       C  0.89218212  0.75136722  0.35711543     0.02700
N1534       N  0.96284011  0.73383399  0.38113936    -0.81000
H1535       H  0.98519517  0.77591814  0.42866870     0.18200
C1536       C  0.90484534  0.75081115  0.32343257    -0.25800
C1537       C  0.88736330  0.73317416  0.29751217     0.36200
C1538       C  0.85634507  0.71624058  0.30544297    -0.19800
C1539       C  0.84358008  0.71675261  0.33909248    -0.25100
C1540       C  0.86128729  0.73418848  0.36513233     0.27600
H1541       H  0.92839014  0.76434339  0.31741603     0.13400
N1542       N  0.90086734  0.73240418  0.26309596    -0.82400
H1543       H  0.81985130  0.70349551  0.34494796     0.18200
N1544       N  0.84809199  0.73465086  0.39963582    -0.80900
H1545       H  0.92395546  0.74596242  0.26161758     0.33800
H1546       H  0.88364645  0.74508034  0.24703595     0.38300
H1547       H  0.82498641  0.72111588  0.40112723     0.33800
H1548       H  0.86550789  0.72157576  0.41519272     0.30500
H1549       H  0.96785278  0.71760302  0.40193528     0.33800
H1550       H  0.94821278  0.71932966  0.36413627     0.30500
H1551       H  0.90476378  0.86074800  0.45656324     0.38400
H1552       H  0.88570024  0.86501361  0.41852210     0.33800
C1553       C  0.94186715  0.80773939  0.56122726    -0.19900
C1554       C  0.91882410  0.82541593  0.58276355     0.36300
C1555       C  0.90216941  0.80745938  0.60949879    -0.25900
C1556       C  0.90809897  0.77227189  0.61481866     0.02800
C1557       C  0.93178190  0.75490814  0.59380770     0.27600
C1558       C  0.94829566  0.77277332  0.56710070    -0.25000
N1559       N  0.91167251  0.86112258  0.57672753    -0.82400
H1560       H  0.88379273  0.82064271  0.62564344     0.13400
C1561       C  0.88874822  0.75349917  0.64183587     0.02700
N1562       N  0.93850488  0.71906214  0.59939768    -0.81000
H1563       H  0.96572417  0.75922591  0.55019841     0.18200
C1564       C  0.86372970  0.72938035  0.63223173    -0.25800
C1565       C  0.84565955  0.71022322  0.65715580     0.36200
C1566       C  0.85296390  0.71536403  0.69218405    -0.19800
C1567       C  0.87738672  0.74000734  0.70167697    -0.25100
C1568       C  0.89561829  0.75868901  0.67697428     0.27600
H1569       H  0.85841048  0.72549856  0.60522088     0.13400
N1570       N  0.81953780  0.68625422  0.64713442    -0.82400
H1571       H  0.88280599  0.74425412  0.72861221     0.18200
N1572       N  0.92172250  0.78194726  0.68820408    -0.80900
H1573       H  0.81681714  0.68612223  0.62043341     0.33800
H1574       H  0.82763316  0.66168244  0.65408144     0.38300
H1575       H  0.91563840  0.80665995  0.67973436     0.33800
H1576       H  0.94489536  0.77463958  0.67691554     0.30500
H1577       H  0.95633595  0.71006751  0.58149054     0.33800
H1578       H  0.94982949  0.71664681  0.62356872     0.30500
H1579       H  0.89968474  0.86309107  0.55284472     0.38400
H1580       H  0.89425232  0.87031292  0.59494619     0.33800
C1581       C  0.94430875  0.06859547  0.55527213    -0.19900
C1582       C  0.92670360  0.10023579  0.55120884     0.36300
C1583       C  0.90943157  0.11463976  0.57926675    -0.25900
C1584       C  0.91474439  0.10289231  0.61290827     0.02800
C1585       C  0.93695383  0.07450378  0.61773304     0.27600
C1586       C  0.94963470  0.05655143  0.58895221    -0.25000
N1587       N  0.92712329  0.11838037  0.51896817    -0.82400
H1588       H  0.89221129  0.13580194  0.57460686     0.13400
C1589       C  0.89584042  0.11969751  0.64215521     0.02700
N1590       N  0.94673673  0.06396315  0.65171033    -0.81000
H1591       H  0.96368221  0.03305921  0.59321921     0.18200
C1592       C  0.88276179  0.09912339  0.66895391    -0.25800
C1593       C  0.86564326  0.11359468  0.69719470     0.36200
C1594       C  0.85564947  0.14842665  0.69612497    -0.19800
C1595       C  0.86559276  0.16825196  0.66761890    -0.25100
C1596       C  0.88837979  0.15549068  0.64295159     0.27600
H1597       H  0.88654067  0.07161719  0.66856552     0.13400
N1598       N  0.85921789  0.09315101  0.72725709    -0.82400
H1599       H  0.85787774  0.19483676  0.66583578     0.18200
N1600       N  0.90566608  0.18027736  0.62164241    -0.80900
H1601       H  0.86817739  0.06808465  0.72392005     0.33800
H1602       H  0.87324595  0.10376627  0.74744319     0.38300
H1603       H  0.88876045  0.18868675  0.60268643     0.33800
H1604       H  0.92767818  0.17020787  0.61029381     0.30500
H1605       H  0.96321781  0.04287039  0.65074005     0.33800
H1606       H  0.96056840  0.08417924  0.66264529     0.30500
H1607       H  0.95252061  0.12509698  0.51367533     0.38400
H1608       H  0.91343932  0.14137382  0.52064782     0.33800
C1609       C  0.93750169  0.04974429  0.43046984    -0.19900
C1610       C  0.90921260  0.03399420  0.41456492     0.36300
C1611       C  0.89277377  0.05095475  0.38719405    -0.25900
C1612       C  0.90367101  0.08365056  0.37624262     0.02800
C1613       C  0.93183975  0.09943520  0.39242830     0.27600
C1614       C  0.94868025  0.08209687  0.41907988    -0.25000
N1615       N  0.89679192  0.00142544  0.42689768    -0.82400
H1616       H  0.87075973  0.03921414  0.37505699     0.13400
C1617       C  0.88391253  0.10242688  0.34970361     0.02700
N1618       N  0.94174257  0.13391890  0.38336329    -0.81000
H1619       H  0.96961689  0.09462160  0.43232598     0.18200
C1620       C  0.85130008  0.11479076  0.35833926    -0.25800
C1621       C  0.83244039  0.13521778  0.33533982     0.36200
C1622       C  0.84713367  0.14429266  0.30325071    -0.19800
C1623       C  0.87945921  0.13118266  0.29452285    -0.25100
C1624       C  0.89759318  0.10974148  0.31680122     0.27600
H1625       H  0.84059347  0.10855365  0.38330776     0.13400
N1626       N  0.79819020  0.14544710  0.34411120    -0.82400
H1627       H  0.89020342  0.13666613  0.26938023     0.18200
N1628       N  0.92897850  0.09485584  0.30453645    -0.80900
H1629       H  0.79099410  0.13550263  0.36803357     0.33800
H1630       H  0.79732419  0.17207203  0.34624770     0.38300
H1631       H  0.94645093  0.11479082  0.30017992     0.33800
H1632       H  0.93978887  0.07827573  0.32254386     0.30500
H1633       H  0.96133706  0.14261626  0.39937738     0.33800
H1634       H  0.95205192  0.13341568  0.35861304     0.30500
H1635       H  0.88774057  0.00501641  0.45193670     0.38400
H1636       H  0.87586217  0.99329458  0.41234482     0.33800
C1637       C  0.27985049  0.71917332  0.69958722    -0.19900
C1638       C  0.26427415  0.75073038  0.70903426     0.36300
C1639       C  0.24792666  0.77035817  0.68390158    -0.25900
C1640       C  0.24572968  0.75876047  0.65005293     0.02800
C1641       C  0.26046543  0.72714252  0.64067931     0.27600
C1642       C  0.27777754  0.70776373  0.66553826    -0.25000
N1643       N  0.26419002  0.76355386  0.74369852    -0.82400
H1644       H  0.23636415  0.79464917  0.69093375     0.13400
C1645       C  0.22805413  0.78010030  0.62442086     0.02700
N1646       N  0.25798254  0.71511066  0.60589863    -0.81000
H1647       H  0.28962404  0.68365238  0.65844289     0.18200
C1648       C  0.24782955  0.80236801  0.60418194    -0.25800
C1649       C  0.23328718  0.82076187  0.57704828     0.36200
C1650       C  0.19810587  0.81616442  0.56965949    -0.19800
C1651       C  0.17792406  0.79545864  0.59123397    -0.25100
C1652       C  0.19245666  0.77727441  0.61859191     0.27600
H1653       H  0.27502109  0.80486747  0.60904453     0.13400
N1654       N  0.25510772  0.84308353  0.55713827    -0.82400
H1655       H  0.15099762  0.79191860  0.58563703     0.18200
N1656       N  0.17055452  0.75561578  0.63911227    -0.80900
H1657       H  0.26500598  0.86161749  0.57381216     0.33800
H1658       H  0.24130193  0.85668650  0.53872296     0.38300
H1659       H  0.16129496  0.73607041  0.62324976     0.33800
H1660       H  0.18384939  0.74364159  0.65898162     0.30500
H1661       H  0.27048605  0.69154777  0.60318133     0.33800
H1662       H  0.23212405  0.71050676  0.60083423     0.30500
H1663       H  0.27545742  0.74637896  0.76079072     0.38400
H1664       H  0.23868175  0.76571241  0.75155679     0.33800
C1665       C  0.19669207  0.80551695  0.44345369    -0.19900
C1666       C  0.21463475  0.82396535  0.41784917     0.36300
C1667       C  0.23101685  0.80590981  0.39110016    -0.25900
C1668       C  0.23040805  0.76982074  0.38994271     0.02800
C1669       C  0.21218646  0.75142399  0.41531206     0.27600
C1670       C  0.19556732  0.76943954  0.44178806    -0.25000
N1671       N  0.21716742  0.86076039  0.41978212    -0.82400
H1672       H  0.24513847  0.81992847  0.37156800     0.13400
C1673       C  0.24895883  0.75153194  0.36204882     0.02700
N1674       N  0.21082900  0.71451849  0.41413882    -0.81000
H1675       H  0.18208155  0.75526550  0.46166273     0.18200
C1676       C  0.27669602  0.73007168  0.37013071    -0.25800
C1677       C  0.29443432  0.71204073  0.34427182     0.36200
C1678       C  0.28421683  0.71577936  0.30980663    -0.19800
C1679       C  0.25686289  0.73755853  0.30177174    -0.25100
C1680       C  0.23887117  0.75517082  0.32753988     0.27600
H1681       H  0.28445816  0.72744103  0.39668901     0.13400
N1682       N  0.32289931  0.69039566  0.35276063    -0.82400
H1683       H  0.24943889  0.74062550  0.27516041     0.18200
N1684       N  0.21012076  0.77641028  0.31890313    -0.80900
H1685       H  0.32745329  0.69088552  0.37919887     0.33800
H1686       H  0.31620004  0.66515051  0.34667073     0.38300
H1687       H  0.20608426  0.77639187  0.29237117     0.33800
H1688       H  0.18836607  0.76530887  0.33007477     0.30500
H1689       H  0.19659282  0.70484447  0.43480456     0.33800
H1690       H  0.19772301  0.70759123  0.39182545     0.30500
H1691       H  0.23099872  0.86679156  0.44191352     0.38400
H1692       H  0.23128750  0.87038795  0.39901174     0.33800
loop_ 
_geom_bond_atom_site_label_1 
_geom_bond_atom_site_label_2 
_geom_bond_distance 
_geom_bond_site_symmetry_2 
_ccdc_geom_bond_type 
C1            C2   1.411       .  A
C1            C6   1.397       .  A
C1         C1665   1.487       .  S
C2            C3   1.418       .  A
C2            H7   1.083       .  S
C3            C4   1.409       .  A
C3          C276   1.490       .  S
C4            C5   1.401       .  A
C4            H8   1.083       .  S
C5            C6   1.396       .  A
C5         C1650   1.475       .  S
C6            H9   1.085       .  S
C10          C11   1.400       .  A
C10          C15   1.393       .  A
C10        C1609   1.478       .  S
C11          C12   1.412       .  A
C11          H16   1.083       .  S
C12          C13   1.414       .  A
C12         C275   1.490   1_645  S
C13          C14   1.417       .  A
C13          H17   1.081       .  S
C14          C15   1.405       .  A
C14        C1581   1.508       .  S
C15          H18   1.081       .  S
C19          C20   1.402       .  A
C19          C24   1.395       .  A
C19        C1525   1.472       .  S
C20          C21   1.410       .  A
C20          H25   1.083       .  S
C21          C22   1.415       .  A
C21         C278   1.487   1_655  S
C22          C23   1.406       .  A
C22          H26   1.083       .  S
C23          C24   1.395       .  A
C23        C1553   1.479       .  S
C24          H27   1.085       .  S
C28          C29   1.399       .  A
C28          C33   1.409       .  A
C28        C1510   1.486       .  S
C29          C30   1.394       .  A
C29          H34   1.085       .  S
C30          C31   1.402       .  A
C30        C1469   1.474       .  S
C31          C32   1.411       .  A
C31          H35   1.083       .  S
C32          C33   1.415       .  A
C32         C292   1.489       .  S
C33          H36   1.083       .  S
C37          C38   1.399       .  A
C37          C42   1.403       .  A
C37        C1441   1.479       .  S
C38          C39   1.397       .  A
C38          H43   1.085       .  S
C39          C40   1.403       .  A
C39        C1426   1.479       .  S
C40          C41   1.411       .  A
C40          H44   1.083       .  S
C41          C42   1.410       .  A
C41         C304   1.483   1_655  S
C42          H45   1.083       .  S
C46          C47   1.410       .  A
C46          C51   1.397       .  A
C46        C1357   1.483       .  S
C47          C48   1.416   1_655  A
C47          H52   1.083       .  S
C48          C49   1.410   1_455  A
C48         C306   1.488       .  S
C49          C50   1.400       .  A
C49          H53   1.084       .  S
C50          C51   1.395       .  A
C50        C1385   1.474       .  S
C51          H54   1.085       .  S
C55          C56   1.404       .  A
C55          C60   1.394       .  A
C55        C1329   1.476       .  S
C56          C57   1.413       .  A
C56          H61   1.083       .  S
C57          C58   1.414       .  A
C57         C291   1.490   1_545  S
C58          C59   1.409       .  A
C58          H62   1.083       .  S
C59          C60   1.397       .  A
C59        C1301   1.487       .  S
C60          H63   1.085       .  S
C64          C65   1.404       .  A
C64          C69   1.395       .  A
C64        C1258   1.475       .  S
C65          C66   1.412       .  A
C65          H70   1.083       .  S
C66          C67   1.409       .  A
C66         C303   1.482       .  S
C67          C68   1.401       .  A
C67          H71   1.084       .  S
C68          C69   1.397       .  A
C68        C1273   1.476       .  S
C69          H72   1.085       .  S
C73          C74   1.406       .  A
C73          C78   1.399       .  A
C73        C1189   1.480       .  S
C74          C75   1.411       .  A
C74          H79   1.083       .  S
C75          C76   1.410       .  A
C75         C290   1.484       .  S
C76          C77   1.400       .  A
C76          H80   1.084       .  S
C77          C78   1.396       .  A
C77        C1230   1.474       .  S
C78          H81   1.085       .  S
C82          C83   1.422       .  A
C82          C87   1.408       .  A
C82        C1133   1.518       .  S
C83          C84   1.417       .  A
C83          H88   1.080       .  S
C84          C85   1.411       .  A
C84         C332   1.493       .  S
C85          C86   1.399       .  A
C85          H89   1.083       .  S
C86          C87   1.394       .  A
C86        C1161   1.483       .  S
C87          H90   1.079       .  S
C91          C92   1.416       .  A
C91          C96   1.415       .  A
C91        C1105   1.495       .  S
C92          C93   1.418       .  A
C92         C993   1.489       .  S
C93          C94   1.417       .  A
C93        C1174   1.495       .  S
C94          C95   1.410       .  A
C94        C1062   1.482       .  S
C95          C96   1.411       .  A
C95        C1077   1.492       .  S
C96        C1034   1.483       .  S
C97          C98   1.406       .  A
C97         C102   1.400       .  A
C97         C978   1.483       .  S
C98          C99   1.413       .  A
C98         H103   1.083       .  S
C99         C100   1.413       .  A
C99         C348   1.489       .  S
C100        C101   1.404       .  A
C100        H104   1.083       .  S
C101        C102   1.397       .  A
C101       C1118   1.478       .  S
C102        H105   1.085       .  S
C106        C107   1.415       .  A
C106        C111   1.419       .  A
C106        C965   1.492       .  S
C107        C108   1.413       .  A
C107       C1678   1.488       .  S
C108        C109   1.410       .  A
C108        C937   1.484       .  S
C109        C110   1.411       .  A
C109        C881   1.489       .  S
C110        C111   1.417       .  A
C110        C909   1.488       .  S
C111       C1497   1.491       .  S
C112        C113   1.415       .  A
C112        C117   1.407       .  A
C112        C810   1.487       .  S
C113        C114   1.425       .  A
C113        C853   1.495       .  S
C114        C115   1.428       .  A
C114       C1622   1.496       .  S
C115        C116   1.421       .  A
C115       C1146   1.508       .  S
C116        C117   1.411       .  A
C116       C1413   1.489       .  S
C117        C825   1.490       .  S
C118        C119   1.396       .  A
C118        C123   1.404       .  A
C118        C782   1.478       .  S
C119        C120   1.397       .  A
C119        H124   1.085       .  S
C120        C121   1.406       .  A
C120        C866   1.478       .  S
C121        C122   1.413       .  A
C121        H125   1.083       .  S
C122        C123   1.412       .  A
C122        C346   1.488       .  S
C123        H126   1.083       .  S
C127        C128   1.419       .  A
C127        C132   1.419       .  A
C127       C1482   1.490       .  S
C128        C129   1.416       .  A
C128        C769   1.494       .  S
C129        C130   1.410       .  A
C129       C1538   1.482       .  S
C130        C131   1.406       .  A
C130        C741   1.491       .  S
C131        C132   1.412       .  A
C131       C1454   1.482       .  S
C132        C713   1.493       .  S
C133        C134   1.405       .  A
C133        C138   1.396       .  A
C133        C754   1.479       .  S
C134        C135   1.414       .  A
C134        H139   1.083       .  S
C135        C136   1.411       .  A
C135        C333   1.487       .  S
C136        C137   1.403       .  A
C136        H140   1.083       .  S
C137        C138   1.396       .  A
C137        C950   1.474       .  S
C138        H141   1.085       .  S
C142        C143   1.409       .  A
C142        C147   1.399       .  A
C142       C1090   1.485       .  S
C143        C144   1.415       .  A
C143        H148   1.083       .  S
C144        C145   1.409   1_554  A
C144        C319   1.489       .  S
C145        C146   1.403       .  A
C145        H149   1.084       .  S
C146        C147   1.397   1_556  A
C146        C685   1.476       .  S
C147        H150   1.085       .  S
C151        C152   1.407       .  A
C151        C156   1.409       .  A
C151        C614   1.485       .  S
C152        C153   1.408       .  A
C152        C657   1.479       .  S
C153        C154   1.411       .  A
C153       C1342   1.485       .  S
C154        C155   1.415       .  A
C154        C698   1.484       .  S
C155        C156   1.414       .  A
C155       C1245   1.486       .  S
C156        C629   1.484       .  S
C157        C158   1.394       .  A
C157        C162   1.406       .  A
C157        C573   1.477       .  S
C158        C159   1.395       .  A
C158        H163   1.085       .  S
C159        C160   1.404       .  A
C159        C670   1.477       .  S
C160        C161   1.412       .  A
C160        H164   1.083       .  S
C161        C162   1.415       .  A
C161        C345   1.488       .  S
C162        H165   1.083       .  S
C166        C167   1.412       .  A
C166        C171   1.414       .  A
C166       C1286   1.482       .  S
C167        C168   1.411       .  A
C167        C558   1.492       .  S
C168        C169   1.411       .  A
C168       C1637   1.482       .  S
C169        C170   1.408       .  A
C169        C586   1.486       .  S
C170        C171   1.411       .  A
C170       C1202   1.485       .  S
C171        C530   1.486       .  S
C172        C173   1.396       .  A
C172        C177   1.404       .  A
C172        C502   1.475       .  S
C173        C174   1.397       .  A
C173        H178   1.085       .  S
C174        C175   1.409       .  A
C174        C545   1.487       .  S
C175        C176   1.417       .  A
C175        H179   1.083       .  S
C176        C177   1.411       .  A
C176        C331   1.491       .  S
C177        H180   1.083       .  S
C181        C182   1.396       .  A
C181        C186   1.410       .  A
C181        C461   1.484       .  S
C182        C183   1.393       .  A
C182        H187   1.085       .  S
C183        C184   1.401       .  A
C183        C642   1.471       .  S
C184        C185   1.410       .  A
C184        H188   1.083       .  S
C185        C186   1.417       .  A
C185        C334   1.489       .  S
C186        H189   1.083       .  S
C190        C191   1.427       .  A
C190        C195   1.423       .  A
C190       C1594   1.506       .  S
C191        C192   1.424       .  A
C191        C446   1.495       .  S
C192        C193   1.412       .  A
C192       C1314   1.490       .  S
C193        C194   1.404       .  A
C193        C405   1.491       .  S
C194        C195   1.410       .  A
C194       C1398   1.484       .  S
C195        C474   1.491       .  S
C196        C197   1.405       .  A
C196        C201   1.399       .  A
C196        C377   1.484       .  S
C197        C198   1.411       .  A
C197        H202   1.083       .  S
C198        C199   1.412       .  A
C198        C347   1.487       .  S
C199        C200   1.407       .  A
C199        H203   1.083       .  S
C200        C201   1.402       .  A
C200        C433   1.489       .  S
C201        H204   1.085       .  S
C205        C206   1.419       .  A
C205        C210   1.412       .  A
C205       C1566   1.487       .  S
C206        C207   1.417       .  A
C206        C489   1.489       .  S
C207        C208   1.413       .  A
C207       C1370   1.492       .  S
C208        C209   1.411       .  A
C208        C349   1.488       .  S
C209        C210   1.410       .  A
C209       C1217   1.484       .  S
C210        C390   1.490       .  S
C211        C212   1.409       .  A
C211        C216   1.397       .  A
C211        C922   1.484       .  S
C212        C213   1.414       .  A
C212        H217   1.083       .  S
C213        C214   1.412   1_554  A
C213        C317   1.489       .  S
C214        C215   1.402       .  A
C214        H218   1.083       .  S
C215        C216   1.395   1_556  A
C215        C517   1.478       .  S
C216        H219   1.085       .  S
C220        C221   1.401       .  A
C220        C225   1.397       .  A
C220        C838   1.479       .  S
C221        C222   1.409   1_554  A
C221        H226   1.083       .  S
C222        C223   1.416       .  A
C222        C318   1.487   1_556  S
C223        C224   1.409       .  A
C223        H227   1.083       .  S
C224        C225   1.396   1_556  A
C224        C418   1.482       .  S
C225        H228   1.085       .  S
C229        C230   1.404       .  A
C229        C234   1.397       .  A
C229        C726   1.482       .  S
C230        C231   1.414       .  A
C230        H235   1.083       .  S
C231        C232   1.413   1_554  A
C231        C320   1.490       .  S
C232        C233   1.407       .  A
C232        H236   1.083       .  S
C233        C234   1.398   1_556  A
C233        C362   1.482       .  S
C234        H237   1.085       .  S
C238        C239   1.394       .  A
C238        C243   1.404       .  A
C238       C1021   1.472       .  S
C239        C240   1.393       .  A
C239        H244   1.085       .  S
C240        C241   1.402       .  A
C240        C797   1.472       .  S
C241        C242   1.413   1_545  A
C241        H245   1.083   1_545  S
C242        C243   1.411   1_565  A
C242        C289   1.483       .  S
C243        H246   1.083       .  S
C247        C248   1.396       .  A
C247        C252   1.404       .  A
C247        C894   1.477       .  S
C248        C249   1.397       .  A
C248        H253   1.085       .  S
C249        C250   1.404       .  A
C249       C1049   1.475       .  S
C250        C251   1.411       .  A
C250        H254   1.083       .  S
C251        C252   1.411       .  A
C251        C305   1.485       .  S
C252        H255   1.083       .  S
C256        C257   1.402       .  A
C256        C261   1.394       .  A
C256       C1006   1.470       .  S
C257        C258   1.409       .  A
C257        H262   1.083       .  S
C258        C259   1.415       .  A
C258        C277   1.485   1_545  S
C259        C260   1.406       .  A
C259        H263   1.083       .  S
C260        C261   1.396       .  A
C260        C601   1.479       .  S
C261        H264   1.085       .  S
O265        V273   1.914       .  S
O265        C275   1.268       .  A
O266        V273   1.911       .  S
O266        C276   1.269       .  A
O267        V273   1.898       .  S
O267        C277   1.263       .  A
O268        V273   1.900       .  S
O268        C278   1.264       .  A
O269        V274   1.910       .  S
O269        C278   1.268       .  A
O270        V274   1.910       .  S
O270        C277   1.268       .  A
O271        V274   1.904       .  S
O271        C276   1.264       .  A
O272        V274   1.901       .  S
O272        C275   1.265       .  A
V273        V274   2.085       .  T
O279        V287   1.897   1_554  S
O279        C289   1.264       .  A
O280        V287   1.897       .  S
O280        C290   1.264       .  A
O281        V287   1.907       .  S
O281        C291   1.267       .  A
O282        V287   1.905   1_554  S
O282        C292   1.267       .  A
O283        V288   1.908   1_554  S
O283        C292   1.266       .  A
O284        V288   1.907       .  S
O284        C291   1.267       .  A
O285        V288   1.908       .  S
O285        C290   1.267       .  A
O286        V288   1.907   1_554  S
O286        C289   1.267       .  A
V287        V288   2.085       .  T
O293        V301   1.901   1_556  S
O293        C303   1.266       .  A
O294        V301   1.901       .  S
O294        C304   1.266       .  A
O295        V301   1.904       .  S
O295        C305   1.266       .  A
O296        V301   1.908   1_556  S
O296        C306   1.266       .  A
O297        V302   1.903   1_556  S
O297        C306   1.267       .  A
O298        V302   1.903       .  S
O298        C305   1.266       .  A
O299        V302   1.902       .  S
O299        C304   1.265       .  A
O300        V302   1.902   1_556  S
O300        C303   1.265       .  A
V301        V302   2.085       .  T
O307        V315   1.903       .  S
O307        C317   1.266   1_556  A
O308        V315   1.905       .  S
O308        C318   1.264   1_556  A
O309        V315   1.910       .  S
O309        C319   1.268   1_556  A
O310        V315   1.912       .  S
O310        C320   1.268   1_556  A
O311        V316   1.902       .  S
O311        C320   1.265       .  A
O312        V316   1.903       .  S
O312        C319   1.264       .  A
O313        V316   1.905       .  S
O313        C318   1.268       .  A
O314        V316   1.911       .  S
O314        C317   1.267       .  A
V315        V316   2.085   1_556  T
O321        V329   1.903       .  S
O321        C331   1.264       .  A
O322        V329   1.901       .  S
O322        C332   1.265       .  A
O323        V329   1.909       .  S
O323        C333   1.268       .  A
O324        V329   1.909       .  S
O324        C334   1.268       .  A
O325        V330   1.906       .  S
O325        C334   1.265       .  A
O326        V330   1.900       .  S
O326        C333   1.264       .  A
O327        V330   1.919       .  S
O327        C332   1.269       .  A
O328        V330   1.914       .  S
O328        C331   1.269       .  A
V329        V330   2.084       .  T
O335        V343   1.905       .  S
O335        C345   1.265       .  A
O336        V343   1.903       .  S
O336        C346   1.266       .  A
O337        V343   1.906       .  S
O337        C347   1.266       .  A
O338        V343   1.907       .  S
O338        C348   1.267       .  A
O339        V344   1.905       .  S
O339        C348   1.266       .  A
O340        V344   1.905       .  S
O340        C347   1.266       .  A
O341        V344   1.908       .  S
O341        C346   1.266       .  A
O342        V344   1.908       .  S
O342        C345   1.267       .  A
V343        V344   2.085       .  T
C349        C350   1.415       .  A
C349        C354   1.404       .  A
C350        C351   1.403       .  A
C350        N355   1.438       .  S
C351        C352   1.405       .  A
C351        H356   1.084       .  S
C352        C353   1.408       .  A
C352        C357   1.485       .  S
C353        C354   1.404       .  A
C353        N358   1.438       .  S
C354        H359   1.083       .  S
N355        H375   1.043       .  S
N355        H376   1.046       .  S
C357        C360   1.405       .  A
C357        C364   1.409       .  A
N358        H373   1.046       .  S
N358        H374   1.046       .  S
C360        C361   1.409       .  A
C360        H365   1.084       .  S
C361        C362   1.411       .  A
C361        N366   1.437       .  S
C362        C363   1.405       .  A
C363        C364   1.403       .  A
C363        H367   1.084       .  S
C364        N368   1.437       .  S
N366        H369   1.046       .  S
N366        H370   1.045       .  S
N368        H371   1.046       .  S
N368        H372   1.046       .  S
C377        C378   1.411       .  A
C377        C382   1.404       .  A
C378        C379   1.408       .  A
C378        N383   1.438       .  S
C379        C380   1.405       .  A
C379        H384   1.084       .  S
C380        C381   1.410       .  A
C380        C385   1.489       .  S
C381        C382   1.406       .  A
C381        N386   1.437       .  S
C382        H387   1.084       .  S
N383        H403   1.045       .  S
N383        H404   1.046       .  S
C385        C388   1.406       .  A
C385        C392   1.409       .  A
N386        H401   1.046       .  S
N386        H402   1.046       .  S
C388        C389   1.404       .  A
C388        H393   1.084       .  S
C389        C390   1.415       .  A
C389        N394   1.438       .  S
C390        C391   1.403       .  A
C391        C392   1.405       .  A
C391        H395   1.084       .  S
C392        N396   1.437       .  S
N394        H397   1.046       .  S
N394        H398   1.043       .  S
N396        H399   1.046       .  S
N396        H400   1.046       .  S
C405        C406   1.410       .  A
C405        C410   1.403       .  A
C406        C407   1.405       .  A
C406        N411   1.438       .  S
C407        C408   1.401       .  A
C407        H412   1.084       .  S
C408        C409   1.412       .  A
C408        C413   1.484       .  S
C409        C410   1.409       .  A
C409        N414   1.437       .  S
C410        H415   1.083       .  S
N411        H431   1.045       .  S
N411        H432   1.045       .  S
C413        C416   1.401       .  A
C413        C420   1.412       .  A
N414        H429   1.046       .  S
N414        H430   1.046       .  S
C416        C417   1.407       .  A
C416        H421   1.084       .  S
C417        C418   1.412       .  A
C417        N422   1.437       .  S
C418        C419   1.403       .  A
C419        C420   1.410       .  A
C419        H423   1.084       .  S
C420        N424   1.438       .  S
N422        H425   1.046       .  S
N422        H426   1.045       .  S
N424        H427   1.046       .  S
N424        H428   1.045       .  S
C433        C434   1.415   1_565  A
C433        C438   1.406       .  A
C434        C435   1.410       .  A
C434        N439   1.437       .  S
C435        C436   1.402       .  A
C435        H440   1.084       .  S
C436        C437   1.407       .  A
C436        C441   1.480       .  S
C437        C438   1.403   1_545  A
C437        N442   1.438       .  S
C438        H443   1.084       .  S
N439        H459   1.045       .  S
N439        H460   1.046       .  S
C441        C444   1.401       .  A
C441        C448   1.406       .  A
N442        H457   1.046       .  S
N442        H458   1.046       .  S
C444        C445   1.400       .  A
C444        H449   1.084       .  S
C445        C446   1.420       .  A
C445        N450   1.437       .  S
C446        C447   1.408       .  A
C447        C448   1.406       .  A
C447        H451   1.084       .  S
C448        N452   1.437       .  S
N450        H453   1.045       .  S
N450        H454   1.042       .  S
N452        H455   1.046       .  S
N452        H456   1.046       .  S
C461        C462   1.411   1_455  A
C461        C466   1.407       .  A
C462        C463   1.409       .  A
C462        N467   1.437       .  S
C463        C464   1.404       .  A
C463        H468   1.084       .  S
C464        C465   1.406       .  A
C464        C469   1.481       .  S
C465        C466   1.404   1_655  A
C465        N470   1.438       .  S
C466        H471   1.084       .  S
N467        H487   1.046   1_655  S
N467        H488   1.046       .  S
C469        C472   1.406       .  A
C469        C476   1.413       .  A
N470        H485   1.046   1_655  S
N470        H486   1.046       .  S
C472        C473   1.405       .  A
C472        H477   1.084       .  S
C473        C474   1.415       .  A
C473        N478   1.437       .  S
C474        C475   1.404       .  A
C475        C476   1.397       .  A
C475        H479   1.084       .  S
C476        N480   1.439       .  S
N478        H481   1.046       .  S
N478        H482   1.043       .  S
N480        H483   1.046       .  S
N480        H484   1.043       .  S
C489        C490   1.410       .  A
C489        C494   1.403       .  A
C490        C491   1.407       .  A
C490        N495   1.436       .  S
C491        C492   1.404       .  A
C491        H496   1.084       .  S
C492        C493   1.408       .  A
C492        C497   1.482       .  S
C493        C494   1.403       .  A
C493        N498   1.437       .  S
C494        H499   1.083       .  S
N495        H515   1.046       .  S
N495        H516   1.043       .  S
C497        C500   1.403       .  A
C497        C504   1.409       .  A
N498        H513   1.046       .  S
N498        H514   1.046       .  S
C500        C501   1.406       .  A
C500        H505   1.084       .  S
C501        C502   1.408   1_655  A
C501        N506   1.437       .  S
C502        C503   1.402   1_455  A
C503        C504   1.405       .  A
C503        H507   1.084   1_655  S
C504        N508   1.436       .  S
N506        H509   1.046       .  S
N506        H510   1.045       .  S
N508        H511   1.046       .  S
N508        H512   1.046       .  S
C517        C518   1.410       .  A
C517        C522   1.404       .  A
C518        C519   1.408       .  A
C518        N523   1.437       .  S
C519        C520   1.403       .  A
C519        H524   1.084       .  S
C520        C521   1.406       .  A
C520        C525   1.476       .  S
C521        C522   1.402       .  A
C521        N526   1.438       .  S
C522        H527   1.084       .  S
N523        H543   1.046       .  S
N523        H544   1.046       .  S
C525        C528   1.404       .  A
C525        C532   1.414       .  A
N526        H541   1.046       .  S
N526        H542   1.046       .  S
C528        C529   1.402       .  A
C528        H533   1.084       .  S
C529        C530   1.405       .  A
C529        N534   1.431       .  S
C530        C531   1.404       .  A
C531        C532   1.400       .  A
C531        H535   1.084       .  S
C532        N536   1.439       .  S
N534        H537   1.046       .  S
N534        H538   1.045       .  S
N536        H539   1.046       .  S
N536        H540   1.043       .  S
C545        C546   1.412       .  A
C545        C550   1.405       .  A
C546        C547   1.411       .  A
C546        N551   1.437       .  S
C547        C548   1.404       .  A
C547        H552   1.084       .  S
C548        C549   1.408       .  A
C548        C553   1.485       .  S
C549        C550   1.405       .  A
C549        N554   1.438       .  S
C550        H555   1.084       .  S
N551        H571   1.045       .  S
N551        H572   1.046       .  S
C553        C556   1.405       .  A
C553        C560   1.407       .  A
N554        H569   1.046       .  S
N554        H570   1.045       .  S
C556        C557   1.405       .  A
C556        H561   1.084       .  S
C557        C558   1.417       .  A
C557        N562   1.438       .  S
C558        C559   1.405       .  A
C559        C560   1.405       .  A
C559        H563   1.084       .  S
C560        N564   1.437       .  S
N562        H565   1.045       .  S
N562        H566   1.042       .  S
N564        H567   1.046       .  S
N564        H568   1.046       .  S
C573        C574   1.411       .  A
C573        C578   1.403       .  A
C574        C575   1.404       .  A
C574        N579   1.438       .  S
C575        C576   1.400       .  A
C575        H580   1.084       .  S
C576        C577   1.409       .  A
C576        C581   1.477       .  S
C577        C578   1.408       .  A
C577        N582   1.438       .  S
C578        H583   1.084       .  S
N579        H599   1.045       .  S
N579        H600   1.046       .  S
C581        C584   1.398       .  A
C581        C588   1.409       .  A
N582        H597   1.045       .  S
N582        H598   1.046       .  S
C584        C585   1.398       .  A
C584        H589   1.084       .  S
C585        C586   1.419       .  A
C585        N590   1.439       .  S
C586        C587   1.403       .  A
C587        C588   1.407       .  A
C587        H591   1.083       .  S
C588        N592   1.437       .  S
N590        H593   1.046       .  S
N590        H594   1.042       .  S
N592        H595   1.046       .  S
N592        H596   1.045       .  S
C601        C602   1.410       .  A
C601        C606   1.404       .  A
C602        C603   1.407       .  A
C602        N607   1.437       .  S
C603        C604   1.403       .  A
C603        H608   1.084       .  S
C604        C605   1.408       .  A
C604        C609   1.480       .  S
C605        C606   1.405       .  A
C605        N610   1.438       .  S
C606        H611   1.084       .  S
N607        H627   1.045   1_545  S
N607        H628   1.046       .  S
C609        C612   1.405       .  A
C609        C616   1.409       .  A
N610        H625   1.046       .  S
N610        H626   1.046       .  S
C612        C613   1.403       .  A
C612        H617   1.084       .  S
C613        C614   1.414       .  A
C613        N618   1.437       .  S
C614        C615   1.404       .  A
C615        C616   1.396       .  A
C615        H619   1.084       .  S
C616        N620   1.432       .  S
N618        H621   1.045       .  S
N618        H622   1.043       .  S
N620        H623   1.046       .  S
N620        H624   1.045       .  S
C629        C630   1.419       .  A
C629        C634   1.403       .  A
C630        C631   1.399       .  A
C630        N635   1.439       .  S
C631        C632   1.398       .  A
C631        H636   1.084       .  S
C632        C633   1.408       .  A
C632        C637   1.475       .  S
C633        C634   1.404       .  A
C633        N638   1.437       .  S
C634        H639   1.083       .  S
N635        H655   1.043       .  S
N635        H656   1.045       .  S
C637        C640   1.401       .  A
C637        C644   1.408       .  A
N638        H653   1.046       .  S
N638        H654   1.045       .  S
C640        C641   1.405       .  A
C640        H645   1.084       .  S
C641        C642   1.410       .  A
C641        N646   1.438       .  S
C642        C643   1.401       .  A
C643        C644   1.404       .  A
C643        H647   1.084       .  S
C644        N648   1.438       .  S
N646        H649   1.046       .  S
N646        H650   1.045       .  S
N648        H651   1.046       .  S
N648        H652   1.046       .  S
C657        C658   1.417       .  A
C657        C662   1.401       .  A
C658        C659   1.398       .  A
C658        N663   1.439       .  S
C659        C660   1.400       .  A
C659        H664   1.084       .  S
C660        C661   1.413       .  A
C660        C665   1.476       .  S
C661        C662   1.396       .  A
C661        N666   1.433       .  S
C662        H667   1.083       .  S
N663        H683   1.043       .  S
N663        H684   1.045       .  S
C665        C668   1.399       .  A
C665        C672   1.410       .  A
N666        H681   1.044       .  S
N666        H682   1.046       .  S
C668        C669   1.401   1_545  A
C668        H673   1.084       .  S
C669        C670   1.412       .  A
C669        N674   1.438       .  S
C670        C671   1.402   1_565  A
C671        C672   1.407       .  A
C671        H675   1.084       .  S
C672        N676   1.438       .  S
N674        H677   1.046       .  S
N674        H678   1.045       .  S
N676        H679   1.045       .  S
N676        H680   1.046       .  S
C685        C686   1.410       .  A
C685        C690   1.402       .  A
C686        C687   1.406       .  A
C686        N691   1.437       .  S
C687        C688   1.402       .  A
C687        H692   1.083       .  S
C688        C689   1.408       .  A
C688        C693   1.476       .  S
C689        C690   1.404       .  A
C689        N694   1.438       .  S
C690        H695   1.084       .  S
N691        H711   1.046       .  S
N691        H712   1.046       .  S
C693        C696   1.403       .  A
C693        C700   1.413       .  A
N694        H709   1.046       .  S
N694        H710   1.045       .  S
C696        C697   1.402       .  A
C696        H701   1.084       .  S
C697        C698   1.415       .  A
C697        N702   1.437       .  S
C698        C699   1.403       .  A
C699        C700   1.398       .  A
C699        H703   1.084       .  S
C700        N704   1.439       .  S
N702        H705   1.046       .  S
N702        H706   1.043       .  S
N704        H707   1.046       .  S
N704        H708   1.043       .  S
C713        C714   1.417       .  A
C713        C718   1.406       .  A
C714        C715   1.404       .  A
C714        N719   1.437       .  S
C715        C716   1.403       .  A
C715        H720   1.084       .  S
C716        C717   1.405       .  A
C716        C721   1.479       .  S
C717        C718   1.403       .  A
C717        N722   1.437       .  S
C718        H723   1.084       .  S
N719        H739   1.043       .  S
N719        H740   1.046       .  S
C721        C724   1.399       .  A
C721        C728   1.409       .  A
N722        H737   1.046       .  S
N722        H738   1.046       .  S
C724        C725   1.401       .  A
C724        H729   1.084       .  S
C725        C726   1.420       .  A
C725        N730   1.439       .  S
C726        C727   1.404       .  A
C727        C728   1.409       .  A
C727        H731   1.084       .  S
C728        N732   1.437       .  S
N730        H733   1.046       .  S
N730        H734   1.043       .  S
N732        H735   1.046       .  S
N732        H736   1.046       .  S
C741        C742   1.412       .  A
C741        C746   1.402       .  A
C742        C743   1.405       .  A
C742        N747   1.438       .  S
C743        C744   1.400       .  A
C743        H748   1.084       .  S
C744        C745   1.411       .  A
C744        C749   1.484       .  S
C745        C746   1.409       .  A
C745        N750   1.437       .  S
C746        H751   1.083       .  S
N747        H767   1.046       .  S
N747        H768   1.045       .  S
C749        C752   1.403       .  A
C749        C756   1.417       .  A
N750        H765   1.046       .  S
N750        H766   1.046       .  S
C752        C753   1.404       .  A
C752        H757   1.084       .  S
C753        C754   1.416   1_655  A
C753        N758   1.439       .  S
C754        C755   1.403   1_455  A
C755        C756   1.403       .  A
C755        H759   1.084   1_655  S
C756        N760   1.439       .  S
N758        H761   1.046       .  S
N758        H762   1.043   1_655  S
N760        H763   1.045       .  S
N760        H764   1.043       .  S
C769        C770   1.412       .  A
C769        C774   1.404       .  A
C770        C771   1.407       .  A
C770        N775   1.436       .  S
C771        C772   1.404       .  A
C771        H776   1.084       .  S
C772        C773   1.410       .  A
C772        C777   1.488       .  S
C773        C774   1.406       .  A
C773        N778   1.438       .  S
C774        H779   1.082       .  S
N775        H795   1.042       .  S
N775        H796   1.046       .  S
C777        C780   1.404       .  A
C777        C784   1.411       .  A
N778        H793   1.046       .  S
N778        H794   1.046       .  S
C780        C781   1.402       .  A
C780        H785   1.084       .  S
C781        C782   1.417       .  A
C781        N786   1.439       .  S
C782        C783   1.404       .  A
C783        C784   1.407       .  A
C783        H787   1.084       .  S
C784        N788   1.438       .  S
N786        H789   1.045       .  S
N786        H790   1.043       .  S
N788        H791   1.046       .  S
N788        H792   1.046       .  S
C797        C798   1.410       .  A
C797        C802   1.401       .  A
C798        C799   1.405       .  A
C798        N803   1.438       .  S
C799        C800   1.402       .  A
C799        H804   1.084       .  S
C800        C801   1.409       .  A
C800        C805   1.477       .  S
C801        C802   1.404       .  A
C801        N806   1.438       .  S
C802        H807   1.084       .  S
N803        H823   1.045       .  S
N803        H824   1.046       .  S
C805        C808   1.398       .  A
C805        C812   1.417       .  A
N806        H821   1.046       .  S
N806        H822   1.045       .  S
C808        C809   1.398       .  A
C808        H813   1.084       .  S
C809        C810   1.418       .  A
C809        N814   1.439       .  S
C810        C811   1.402       .  A
C811        C812   1.402       .  A
C811        H815   1.084       .  S
C812        N816   1.439       .  S
N814        H817   1.046       .  S
N814        H818   1.043       .  S
N816        H819   1.046       .  S
N816        H820   1.043       .  S
C825        C826   1.407       .  A
C825        C830   1.404       .  A
C826        C827   1.402       .  A
C826        N831   1.430       .  S
C827        C828   1.403       .  A
C827        H832   1.084       .  S
C828        C829   1.414       .  A
C828        C833   1.478       .  S
C829        C830   1.400       .  A
C829        N834   1.438       .  S
C830        H835   1.084       .  S
N831        H851   1.046       .  S
N831        H852   1.046       .  S
C833        C836   1.402       .  A
C833        C840   1.407       .  A
N834        H849   1.045       .  S
N834        H850   1.043       .  S
C836        C837   1.406       .  A
C836        H841   1.084       .  S
C837        C838   1.412       .  A
C837        N842   1.438       .  S
C838        C839   1.405       .  A
C839        C840   1.402       .  A
C839        H843   1.084       .  S
C840        N844   1.437       .  S
N842        H845   1.046       .  S
N842        H846   1.044       .  S
N844        H847   1.046       .  S
N844        H848   1.045       .  S
C853        C854   1.417       .  A
C853        C858   1.406       .  A
C854        C855   1.404       .  A
C854        N859   1.437       .  S
C855        C856   1.404       .  A
C855        H860   1.084       .  S
C856        C857   1.413       .  A
C856        C861   1.481       .  S
C857        C858   1.400       .  A
C857        N862   1.439       .  S
C858        H863   1.084       .  S
N859        H879   1.042       .  S
N859        H880   1.046       .  S
C861        C864   1.403       .  A
C861        C868   1.409       .  A
N862        H877   1.045       .  S
N862        H878   1.043       .  S
C864        C865   1.407       .  A
C864        H869   1.084       .  S
C865        C866   1.409   1_545  A
C865        N870   1.437       .  S
C866        C867   1.404       .  A
C867        C868   1.406   1_565  A
C867        H871   1.084       .  S
C868        N872   1.438       .  S
N870        H873   1.046       .  S
N870        H874   1.045       .  S
N872        H875   1.046       .  S
N872        H876   1.045       .  S
C881        C882   1.417       .  A
C881        C886   1.401       .  A
C882        C883   1.401       .  A
C882        N887   1.439       .  S
C883        C884   1.402       .  A
C883        H888   1.084       .  S
C884        C885   1.418       .  A
C884        C889   1.483       .  S
C885        C886   1.401       .  A
C885        N890   1.439       .  S
C886        H891   1.084       .  S
N887        H907   1.042       .  S
N887        H908   1.046       .  S
C889        C892   1.404       .  A
C889        C896   1.418       .  A
N890        H905   1.046       .  S
N890        H906   1.042       .  S
C892        C893   1.406       .  A
C892        H897   1.084       .  S
C893        C894   1.409       .  A
C893        N898   1.438       .  S
C894        C895   1.402       .  A
C895        C896   1.401       .  A
C895        H899   1.084       .  S
C896        N900   1.439       .  S
N898        H901   1.046       .  S
N898        H902   1.045       .  S
N900        H903   1.045       .  S
N900        H904   1.043       .  S
C909        C910   1.416       .  A
C909        C914   1.404       .  A
C910        C911   1.404       .  A
C910        N915   1.436       .  S
C911        C912   1.404       .  A
C911        H916   1.084       .  S
C912        C913   1.406       .  A
C912        C917   1.481       .  S
C913        C914   1.402       .  A
C913        N918   1.437       .  S
C914        H919   1.084       .  S
N915        H935   1.041       .  S
N915        H936   1.045       .  S
C917        C920   1.402       .  A
C917        C924   1.408       .  A
N918        H933   1.046       .  S
N918        H934   1.046       .  S
C920        C921   1.407       .  A
C920        H925   1.084       .  S
C921        C922   1.412       .  A
C921        N926   1.437       .  S
C922        C923   1.407       .  A
C923        C924   1.406       .  A
C923        H927   1.084       .  S
C924        N928   1.438       .  S
N926        H929   1.046       .  S
N926        H930   1.044       .  S
N928        H931   1.046       .  S
N928        H932   1.046       .  S
C937        C938   1.405       .  A
C937        C942   1.402       .  A
C938        C939   1.403       .  A
C938        N943   1.431       .  S
C939        C940   1.404       .  A
C939        H944   1.084       .  S
C940        C941   1.414       .  A
C940        C945   1.476       .  S
C941        C942   1.399       .  A
C941        N946   1.439       .  S
C942        H947   1.084       .  S
N943        H963   1.045       .  S
N943        H964   1.045       .  S
C945        C948   1.401       .  A
C945        C952   1.409       .  A
N946        H961   1.046       .  S
N946        H962   1.043       .  S
C948        C949   1.405       .  A
C948        H953   1.084       .  S
C949        C950   1.410       .  A
C949        N954   1.438       .  S
C950        C951   1.402       .  A
C951        C952   1.406       .  A
C951        H955   1.084       .  S
C952        N956   1.438       .  S
N954        H957   1.046       .  S
N954        H958   1.045       .  S
N956        H959   1.046       .  S
N956        H960   1.045       .  S
C965        C966   1.421       .  A
C965        C970   1.403       .  A
C966        C967   1.404       .  A
C966        N971   1.440       .  S
C967        C968   1.400       .  A
C967        H972   1.084       .  S
C968        C969   1.409       .  A
C968        C973   1.482       .  S
C969        C970   1.406       .  A
C969        N974   1.437       .  S
C970        H975   1.083       .  S
N971        H991   1.043       .  S
N971        H992   1.046       .  S
C973        C976   1.401       .  A
C973        C980   1.411       .  A
N974        H989   1.046       .  S
N974        H990   1.045       .  S
C976        C977   1.406       .  A
C976        H981   1.084       .  S
C977        C978   1.411       .  A
C977        N982   1.438       .  S
C978        C979   1.404       .  A
C979        C980   1.409       .  A
C979        H983   1.084       .  S
C980        N984   1.438       .  S
N982        H985   1.046       .  S
N982        H986   1.046       .  S
N984        H987   1.046       .  S
N984        H988   1.045       .  S
C993        C994   1.409       .  A
C993        C998   1.402       .  A
C994        C995   1.398       .  A
C994        N999   1.431       .  S
C995        C996   1.398       .  A
C995       H1000   1.084       .  S
C996        C997   1.418       .  A
C996       C1001   1.476       .  S
C997        C998   1.403       .  A
C997       N1002   1.438       .  S
C998       H1003   1.084       .  S
N999       H1019   1.045       .  S
N999       H1020   1.045       .  S
C1001      C1004   1.401       .  A
C1001      C1008   1.410       .  A
N1002      H1017   1.046       .  S
N1002      H1018   1.043       .  S
C1004      C1005   1.401       .  A
C1004      H1009   1.084       .  S
C1005      C1006   1.405       .  A
C1005      N1010   1.432       .  S
C1006      C1007   1.402       .  A
C1007      C1008   1.405       .  A
C1007      H1011   1.084       .  S
C1008      N1012   1.438       .  S
N1010      H1013   1.046       .  S
N1010      H1014   1.045   1_545  S
N1012      H1015   1.046       .  S
N1012      H1016   1.046       .  S
C1021      C1022   1.409       .  A
C1021      C1026   1.401       .  A
C1022      C1023   1.406       .  A
C1022      N1027   1.438       .  S
C1023      C1024   1.403       .  A
C1023      H1028   1.084       .  S
C1024      C1025   1.414       .  A
C1024      C1029   1.471       .  S
C1025      C1026   1.396       .  A
C1025      N1030   1.440       .  S
C1026      H1031   1.084       .  S
N1027      H1047   1.046       .  S
N1027      H1048   1.046       .  S
C1029      C1032   1.397       .  A
C1029      C1036   1.410       .  A
N1030      H1045   1.046       .  S
N1030      H1046   1.043       .  S
C1032      C1033   1.398       .  A
C1032      H1037   1.084       .  S
C1033      C1034   1.408       .  A
C1033      N1038   1.432       .  S
C1034      C1035   1.403       .  A
C1035      C1036   1.405       .  A
C1035      H1039   1.083       .  S
C1036      N1040   1.437       .  S
N1038      H1041   1.045       .  S
N1038      H1042   1.045       .  S
N1040      H1043   1.046       .  S
N1040      H1044   1.045       .  S
C1049      C1050   1.409       .  A
C1049      C1054   1.402       .  A
C1050      C1051   1.405       .  A
C1050      N1055   1.438       .  S
C1051      C1052   1.403       .  A
C1051      H1056   1.083       .  S
C1052      C1053   1.410       .  A
C1052      C1057   1.480       .  S
C1053      C1054   1.405       .  A
C1053      N1058   1.438       .  S
C1054      H1059   1.084       .  S
N1055      H1075   1.046       .  S
N1055      H1076   1.046       .  S
C1057      C1060   1.406       .  A
C1057      C1064   1.412       .  A
N1058      H1073   1.046       .  S
N1058      H1074   1.046       .  S
C1060      C1061   1.403       .  A
C1060      H1065   1.084       .  S
C1061      C1062   1.404       .  A
C1061      N1066   1.431       .  S
C1062      C1063   1.402       .  A
C1063      C1064   1.395       .  A
C1063      H1067   1.083       .  S
C1064      N1068   1.433       .  S
N1066      H1069   1.045       .  S
N1066      H1070   1.046       .  S
N1068      H1071   1.044       .  S
N1068      H1072   1.046       .  S
C1077      C1078   1.416       .  A
C1077      C1082   1.404       .  A
C1078      C1079   1.404       .  A
C1078      N1083   1.437       .  S
C1079      C1080   1.405       .  A
C1079      H1084   1.084       .  S
C1080      C1081   1.408       .  A
C1080      C1085   1.487       .  S
C1081      C1082   1.405       .  A
C1081      N1086   1.437       .  S
C1082      H1087   1.084       .  S
N1083      H1103   1.043       .  S
N1083      H1104   1.045       .  S
C1085      C1088   1.404       .  A
C1085      C1092   1.410       .  A
N1086      H1101   1.046       .  S
N1086      H1102   1.046       .  S
C1088      C1089   1.408       .  A
C1088      H1093   1.084       .  S
C1089      C1090   1.411       .  A
C1089      N1094   1.438       .  S
C1090      C1091   1.405       .  A
C1091      C1092   1.408       .  A
C1091      H1095   1.084       .  S
C1092      N1096   1.438       .  S
N1094      H1097   1.046       .  S
N1094      H1098   1.046       .  S
N1096      H1099   1.046       .  S
N1096      H1100   1.046       .  S
C1105      C1106   1.418       .  A
C1105      C1110   1.406       .  A
C1106      C1107   1.403       .  A
C1106      N1111   1.436       .  S
C1107      C1108   1.404       .  A
C1107      H1112   1.084       .  S
C1108      C1109   1.408       .  A
C1108      C1113   1.487       .  S
C1109      C1110   1.405       .  A
C1109      N1114   1.437       .  S
C1110      H1115   1.084       .  S
N1111      H1131   1.042       .  S
N1111      H1132   1.045       .  S
C1113      C1116   1.405       .  A
C1113      C1120   1.411       .  A
N1114      H1129   1.046       .  S
N1114      H1130   1.046       .  S
C1116      C1117   1.408       .  A
C1116      H1121   1.084       .  S
C1117      C1118   1.409   1_545  A
C1117      N1122   1.437   1_545  S
C1118      C1119   1.402   1_565  A
C1119      C1120   1.406       .  A
C1119      H1123   1.084   1_545  S
C1120      N1124   1.438       .  S
N1122      H1125   1.046   1_565  S
N1122      H1126   1.046   1_565  S
N1124      H1127   1.046       .  S
N1124      H1128   1.046       .  S
C1133      C1134   1.423       .  A
C1133      C1138   1.411   1_455  A
C1134      C1135   1.401   1_455  A
C1134      N1139   1.439       .  S
C1135      C1136   1.404       .  A
C1135      H1140   1.080       .  S
C1136      C1137   1.422       .  A
C1136      C1141   1.515       .  S
C1137      C1138   1.415       .  A
C1137      N1142   1.437       .  S
C1138      H1143   1.080       .  S
N1139      H1159   1.046       .  S
N1139      H1160   1.046       .  S
C1141      C1144   1.409       .  A
C1141      C1148   1.422       .  A
N1142      H1157   1.046       .  S
N1142      H1158   1.046       .  S
C1144      C1145   1.404       .  A
C1144      H1149   1.081       .  S
C1145      C1146   1.418       .  A
C1145      N1150   1.434       .  S
C1146      C1147   1.401       .  A
C1147      C1148   1.405       .  A
C1147      H1151   1.078       .  S
C1148      N1152   1.438       .  S
N1150      H1153   1.046       .  S
N1150      H1154   1.041       .  S
N1152      H1155   1.046       .  S
N1152      H1156   1.045       .  S
C1161      C1162   1.418       .  A
C1161      C1166   1.406       .  A
C1162      C1163   1.403       .  A
C1162      N1167   1.438       .  S
C1163      C1164   1.401       .  A
C1163      H1168   1.083       .  S
C1164      C1165   1.407       .  A
C1164      C1169   1.480       .  S
C1165      C1166   1.407       .  A
C1165      N1170   1.438       .  S
C1166      H1171   1.084       .  S
N1167      H1187   1.044       .  S
N1167      H1188   1.046       .  S
C1169      C1172   1.402       .  A
C1169      C1176   1.405       .  A
N1170      H1185   1.046       .  S
N1170      H1186   1.045       .  S
C1172      C1173   1.403       .  A
C1172      H1177   1.084       .  S
C1173      C1174   1.419       .  A
C1173      N1178   1.436       .  S
C1174      C1175   1.406       .  A
C1175      C1176   1.403       .  A
C1175      H1179   1.084       .  S
C1176      N1180   1.437       .  S
N1178      H1181   1.045       .  S
N1178      H1182   1.042       .  S
N1180      H1183   1.046       .  S
N1180      H1184   1.045       .  S
C1189      C1190   1.410       .  A
C1189      C1194   1.403       .  A
C1190      C1191   1.402       .  A
C1190      N1195   1.433       .  S
C1191      C1192   1.401       .  A
C1191      H1196   1.084       .  S
C1192      C1193   1.410       .  A
C1192      C1197   1.479       .  S
C1193      C1194   1.407       .  A
C1193      N1198   1.438       .  S
C1194      H1199   1.084       .  S
N1195      H1215   1.046       .  S
N1195      H1216   1.046       .  S
C1197      C1200   1.400       .  A
C1197      C1204   1.413       .  A
N1198      H1213   1.045       .  S
N1198      H1214   1.046       .  S
C1200      C1201   1.404       .  A
C1200      H1205   1.084       .  S
C1201      C1202   1.411       .  A
C1201      N1206   1.437       .  S
C1202      C1203   1.401       .  A
C1203      C1204   1.400       .  A
C1203      H1207   1.084       .  S
C1204      N1208   1.432       .  S
N1206      H1209   1.045       .  S
N1206      H1210   1.045       .  S
N1208      H1211   1.045       .  S
N1208      H1212   1.046       .  S
C1217      C1218   1.415       .  A
C1217      C1222   1.404       .  A
C1218      C1219   1.401       .  A
C1218      N1223   1.438       .  S
C1219      C1220   1.402       .  A
C1219      H1224   1.084       .  S
C1220      C1221   1.408       .  A
C1220      C1225   1.475       .  S
C1221      C1222   1.396       .  A
C1221      N1226   1.432       .  S
C1222      H1227   1.084       .  S
N1223      H1243   1.043       .  S
N1223      H1244   1.045       .  S
C1225      C1228   1.401       .  A
C1225      C1232   1.409       .  A
N1226      H1241   1.045       .  S
N1226      H1242   1.044       .  S
C1228      C1229   1.405       .  A
C1228      H1233   1.084       .  S
C1229      C1230   1.410       .  A
C1229      N1234   1.438       .  S
C1230      C1231   1.401       .  A
C1231      C1232   1.405       .  A
C1231      H1235   1.084       .  S
C1232      N1236   1.437       .  S
N1234      H1237   1.046       .  S
N1234      H1238   1.045       .  S
N1236      H1239   1.046       .  S
N1236      H1240   1.044       .  S
C1245      C1246   1.408       .  A
C1245      C1250   1.403       .  A
C1246      C1247   1.406       .  A
C1246      N1251   1.436       .  S
C1247      C1248   1.406       .  A
C1247      H1252   1.084       .  S
C1248      C1249   1.408       .  A
C1248      C1253   1.484       .  S
C1249      C1250   1.402       .  A
C1249      N1254   1.437       .  S
C1250      H1255   1.084       .  S
N1251      H1271   1.042       .  S
N1251      H1272   1.045       .  S
C1253      C1256   1.404       .  A
C1253      C1260   1.411       .  A
N1254      H1269   1.046       .  S
N1254      H1270   1.046       .  S
C1256      C1257   1.406       .  A
C1256      H1261   1.084       .  S
C1257      C1258   1.409       .  A
C1257      N1262   1.438       .  S
C1258      C1259   1.403       .  A
C1259      C1260   1.405       .  A
C1259      H1263   1.084       .  S
C1260      N1264   1.438       .  S
N1262      H1265   1.046       .  S
N1262      H1266   1.046       .  S
N1264      H1267   1.046       .  S
N1264      H1268   1.046       .  S
C1273      C1274   1.408       .  A
C1273      C1278   1.404       .  A
C1274      C1275   1.404       .  A
C1274      N1279   1.432       .  S
C1275      C1276   1.403       .  A
C1275      H1280   1.084       .  S
C1276      C1277   1.404       .  A
C1276      C1281   1.475       .  S
C1277      C1278   1.398       .  A
C1277      N1282   1.432       .  S
C1278      H1283   1.084       .  S
N1279      H1299   1.045       .  S
N1279      H1300   1.046       .  S
C1281      C1284   1.404       .  A
C1281      C1288   1.414       .  A
N1282      H1297   1.045       .  S
N1282      H1298   1.046       .  S
C1284      C1285   1.401       .  A
C1284      H1289   1.084       .  S
C1285      C1286   1.404       .  A
C1285      N1290   1.431       .  S
C1286      C1287   1.403       .  A
C1287      C1288   1.398       .  A
C1287      H1291   1.083       .  S
C1288      N1292   1.439       .  S
N1290      H1293   1.045       .  S
N1290      H1294   1.046       .  S
N1292      H1295   1.043       .  S
N1292      H1296   1.046       .  S
C1301      C1302   1.413       .  A
C1301      C1306   1.408       .  A
C1302      C1303   1.408       .  A
C1302      N1307   1.438       .  S
C1303      C1304   1.403       .  A
C1303      H1308   1.084       .  S
C1304      C1305   1.406       .  A
C1304      C1309   1.479       .  S
C1305      C1306   1.404       .  A
C1305      N1310   1.438       .  S
C1306      H1311   1.084       .  S
N1307      H1327   1.046       .  S
N1307      H1328   1.046   1_545  S
C1309      C1312   1.405       .  A
C1309      C1316   1.404       .  A
N1310      H1325   1.046       .  S
N1310      H1326   1.046       .  S
C1312      C1313   1.405       .  A
C1312      H1317   1.084       .  S
C1313      C1314   1.416       .  A
C1313      N1318   1.437       .  S
C1314      C1315   1.406       .  A
C1315      C1316   1.400       .  A
C1315      H1319   1.084       .  S
C1316      N1320   1.438       .  S
N1318      H1321   1.045       .  S
N1318      H1322   1.043       .  S
N1320      H1323   1.046       .  S
N1320      H1324   1.046       .  S
C1329      C1330   1.410       .  A
C1329      C1334   1.403       .  A
C1330      C1331   1.407       .  A
C1330      N1335   1.438       .  S
C1331      C1332   1.403       .  A
C1331      H1336   1.084       .  S
C1332      C1333   1.409       .  A
C1332      C1337   1.480       .  S
C1333      C1334   1.405       .  A
C1333      N1338   1.438       .  S
C1334      H1339   1.084       .  S
N1335      H1355   1.045       .  S
N1335      H1356   1.046       .  S
C1337      C1340   1.400       .  A
C1337      C1344   1.420       .  A
N1338      H1353   1.046       .  S
N1338      H1354   1.045       .  S
C1340      C1341   1.400       .  A
C1340      H1345   1.084       .  S
C1341      C1342   1.407       .  A
C1341      N1346   1.432       .  S
C1342      C1343   1.400       .  A
C1343      C1344   1.404       .  A
C1343      H1347   1.083       .  S
C1344      N1348   1.438       .  S
N1346      H1349   1.045       .  S
N1346      H1350   1.045       .  S
N1348      H1351   1.046       .  S
N1348      H1352   1.043       .  S
C1357      C1358   1.410       .  A
C1357      C1362   1.404       .  A
C1358      C1359   1.410       .  A
C1358      N1363   1.437       .  S
C1359      C1360   1.406       .  A
C1359      H1364   1.084       .  S
C1360      C1361   1.410       .  A
C1360      C1365   1.490       .  S
C1361      C1362   1.406       .  A
C1361      N1366   1.437       .  S
C1362      H1367   1.084       .  S
N1363      H1383   1.046   1_655  S
N1363      H1384   1.046   1_655  S
C1365      C1368   1.408       .  A
C1365      C1372   1.417       .  A
N1366      H1381   1.046       .  S
N1366      H1382   1.046       .  S
C1368      C1369   1.406       .  A
C1368      H1373   1.084       .  S
C1369      C1370   1.416       .  A
C1369      N1374   1.438       .  S
C1370      C1371   1.402       .  A
C1371      C1372   1.401       .  A
C1371      H1375   1.083       .  S
C1372      N1376   1.439       .  S
N1374      H1377   1.046       .  S
N1374      H1378   1.043       .  S
N1376      H1379   1.046       .  S
N1376      H1380   1.042       .  S
C1385      C1386   1.415       .  A
C1385      C1390   1.402       .  A
C1386      C1387   1.399       .  A
C1386      N1391   1.439       .  S
C1387      C1388   1.401       .  A
C1387      H1392   1.084       .  S
C1388      C1389   1.416       .  A
C1388      C1393   1.476       .  S
C1389      C1390   1.401       .  A
C1389      N1394   1.439       .  S
C1390      H1395   1.084       .  S
N1391      H1411   1.043       .  S
N1391      H1412   1.046       .  S
C1393      C1396   1.400       .  A
C1393      C1400   1.408       .  A
N1394      H1409   1.046       .  S
N1394      H1410   1.043       .  S
C1396      C1397   1.400       .  A
C1396      H1401   1.084       .  S
C1397      C1398   1.417       .  A
C1397      N1402   1.439       .  S
C1398      C1399   1.401       .  A
C1399      C1400   1.403       .  A
C1399      H1403   1.082       .  S
C1400      N1404   1.437       .  S
N1402      H1405   1.046       .  S
N1402      H1406   1.043       .  S
N1404      H1407   1.046       .  S
N1404      H1408   1.046       .  S
C1413      C1414   1.413       .  A
C1413      C1418   1.401       .  A
C1414      C1415   1.403       .  A
C1414      N1419   1.439       .  S
C1415      C1416   1.399       .  A
C1415      H1420   1.084       .  S
C1416      C1417   1.411       .  A
C1416      C1421   1.480       .  S
C1417      C1418   1.408       .  A
C1417      N1422   1.437       .  S
C1418      H1423   1.083       .  S
N1419      H1439   1.041       .  S
N1419      H1440   1.046       .  S
C1421      C1424   1.400       .  A
C1421      C1428   1.410       .  A
N1422      H1437   1.046       .  S
N1422      H1438   1.046       .  S
C1424      C1425   1.401       .  A
C1424      H1429   1.083       .  S
C1425      C1426   1.418       .  A
C1425      N1430   1.439       .  S
C1426      C1427   1.403       .  A
C1427      C1428   1.407       .  A
C1427      H1431   1.084       .  S
C1428      N1432   1.437       .  S
N1430      H1433   1.046       .  S
N1430      H1434   1.043       .  S
N1432      H1435   1.045       .  S
N1432      H1436   1.045       .  S
C1441      C1442   1.411       .  A
C1441      C1446   1.403       .  A
C1442      C1443   1.406       .  A
C1442      N1447   1.438       .  S
C1443      C1444   1.403       .  A
C1443      H1448   1.084       .  S
C1444      C1445   1.415       .  A
C1444      C1449   1.476       .  S
C1445      C1446   1.398       .  A
C1445      N1450   1.439       .  S
C1446      H1451   1.084       .  S
N1447      H1467   1.046       .  S
N1447      H1468   1.046   1_655  S
C1449      C1452   1.400       .  A
C1449      C1456   1.411       .  A
N1450      H1465   1.045       .  S
N1450      H1466   1.044       .  S
C1452      C1453   1.404       .  A
C1452      H1457   1.084       .  S
C1453      C1454   1.411       .  A
C1453      N1458   1.437       .  S
C1454      C1455   1.399       .  A
C1455      C1456   1.403       .  A
C1455      H1459   1.083       .  S
C1456      N1460   1.438       .  S
N1458      H1461   1.046       .  S
N1458      H1462   1.046       .  S
N1460      H1463   1.046       .  S
N1460      H1464   1.044       .  S
C1469      C1470   1.409       .  A
C1469      C1474   1.403       .  A
C1470      C1471   1.404       .  A
C1470      N1475   1.438       .  S
C1471      C1472   1.402       .  A
C1471      H1476   1.084       .  S
C1472      C1473   1.411       .  A
C1472      C1477   1.481       .  S
C1473      C1474   1.407       .  A
C1473      N1478   1.438       .  S
C1474      H1479   1.084       .  S
N1475      H1495   1.045       .  S
N1475      H1496   1.046       .  S
C1477      C1480   1.404       .  A
C1477      C1484   1.407       .  A
N1478      H1493   1.046       .  S
N1478      H1494   1.046       .  S
C1480      C1481   1.407       .  A
C1480      H1485   1.084       .  S
C1481      C1482   1.411       .  A
C1481      N1486   1.437       .  S
C1482      C1483   1.403       .  A
C1483      C1484   1.402       .  A
C1483      H1487   1.080       .  S
C1484      N1488   1.438       .  S
N1486      H1489   1.046       .  S
N1486      H1490   1.043       .  S
N1488      H1491   1.046       .  S
N1488      H1492   1.046       .  S
C1497      C1498   1.414       .  A
C1497      C1502   1.404       .  A
C1498      C1499   1.405       .  A
C1498      N1503   1.438       .  S
C1499      C1500   1.399       .  A
C1499      H1504   1.084       .  S
C1500      C1501   1.409       .  A
C1500      C1505   1.480       .  S
C1501      C1502   1.406       .  A
C1501      N1506   1.437       .  S
C1502      H1507   1.083       .  S
N1503      H1523   1.042       .  S
N1503      H1524   1.048       .  S
C1505      C1508   1.399       .  A
C1505      C1512   1.410       .  A
N1506      H1521   1.046       .  S
N1506      H1522   1.046       .  S
C1508      C1509   1.403       .  A
C1508      H1513   1.084       .  S
C1509      C1510   1.415       .  A
C1509      N1514   1.438       .  S
C1510      C1511   1.404       .  A
C1511      C1512   1.410       .  A
C1511      H1515   1.083       .  S
C1512      N1516   1.437       .  S
N1514      H1517   1.046       .  S
N1514      H1518   1.045       .  S
N1516      H1519   1.046       .  S
N1516      H1520   1.046       .  S
C1525      C1526   1.414       .  A
C1525      C1530   1.401       .  A
C1526      C1527   1.398       .  A
C1526      N1531   1.439       .  S
C1527      C1528   1.402       .  A
C1527      H1532   1.085       .  S
C1528      C1529   1.419       .  A
C1528      C1533   1.480       .  S
C1529      C1530   1.402       .  A
C1529      N1534   1.440       .  S
C1530      H1535   1.084       .  S
N1531      H1551   1.043       .  S
N1531      H1552   1.046       .  S
C1533      C1536   1.400       .  A
C1533      C1540   1.412       .  A
N1534      H1549   1.045       .  S
N1534      H1550   1.042       .  S
C1536      C1537   1.401       .  A
C1536      H1541   1.084       .  S
C1537      C1538   1.411       .  A
C1537      N1542   1.439       .  S
C1538      C1539   1.400       .  A
C1539      C1540   1.405       .  A
C1539      H1543   1.083       .  S
C1540      N1544   1.437       .  S
N1542      H1545   1.046       .  S
N1542      H1546   1.045       .  S
N1544      H1547   1.046       .  S
N1544      H1548   1.046       .  S
C1553      C1554   1.410       .  A
C1553      C1558   1.403       .  A
C1554      C1555   1.409       .  A
C1554      N1559   1.437       .  S
C1555      C1556   1.405       .  A
C1555      H1560   1.084       .  S
C1556      C1557   1.408       .  A
C1556      C1561   1.483       .  S
C1557      C1558   1.404       .  A
C1557      N1562   1.437       .  S
C1558      H1563   1.084       .  S
N1559      H1579   1.046       .  S
N1559      H1580   1.046       .  S
C1561      C1564   1.406       .  A
C1561      C1568   1.410       .  A
N1562      H1577   1.045       .  S
N1562      H1578   1.046       .  S
C1564      C1565   1.409       .  A
C1564      H1569   1.084       .  S
C1565      C1566   1.409       .  A
C1565      N1570   1.437       .  S
C1566      C1567   1.402       .  A
C1567      C1568   1.397       .  A
C1567      H1571   1.084       .  S
C1568      N1572   1.432       .  S
N1570      H1573   1.045       .  S
N1570      H1574   1.044       .  S
N1572      H1575   1.044       .  S
N1572      H1576   1.046       .  S
C1581      C1582   1.421       .  A
C1581      C1586   1.408       .  A
C1582      C1583   1.401       .  A
C1582      N1587   1.439       .  S
C1583      C1584   1.403       .  A
C1583      H1588   1.081       .  S
C1584      C1585   1.420       .  A
C1584      C1589   1.506       .  S
C1585      C1586   1.411       .  A
C1585      N1590   1.438       .  S
C1586      H1591   1.081       .  S
N1587      H1607   1.046       .  S
N1587      H1608   1.046       .  S
C1589      C1592   1.408       .  A
C1589      C1596   1.424       .  A
N1590      H1605   1.045       .  S
N1590      H1606   1.046       .  S
C1592      C1593   1.405       .  A
C1592      H1597   1.081       .  S
C1593      C1594   1.412       .  A
C1593      N1598   1.435       .  S
C1594      C1595   1.404       .  A
C1595      C1596   1.400       .  A
C1595      H1599   1.081       .  S
C1596      N1600   1.437       .  S
N1598      H1601   1.046       .  S
N1598      H1602   1.045       .  S
N1600      H1603   1.045       .  S
N1600      H1604   1.043       .  S
C1609      C1610   1.409       .  A
C1609      C1614   1.402       .  A
C1610      C1611   1.410       .  A
C1610      N1615   1.437       .  S
C1611      C1612   1.406       .  A
C1611      H1616   1.084       .  S
C1612      C1613   1.411       .  A
C1612      C1617   1.485       .  S
C1613      C1614   1.404       .  A
C1613      N1618   1.439       .  S
C1614      H1619   1.084       .  S
N1615      H1635   1.046       .  S
N1615      H1636   1.046   1_545  S
C1617      C1620   1.404       .  A
C1617      C1624   1.414       .  A
N1618      H1633   1.045       .  S
N1618      H1634   1.043       .  S
C1620      C1621   1.408       .  A
C1620      H1625   1.084       .  S
C1621      C1622   1.417       .  A
C1621      N1626   1.438       .  S
C1622      C1623   1.405       .  A
C1623      C1624   1.399       .  A
C1623      H1627   1.084       .  S
C1624      N1628   1.438       .  S
N1626      H1629   1.045       .  S
N1626      H1630   1.040       .  S
N1628      H1631   1.045       .  S
N1628      H1632   1.043       .  S
C1637      C1638   1.421       .  A
C1637      C1642   1.401       .  A
C1638      C1639   1.398       .  A
C1638      N1643   1.440       .  S
C1639      C1640   1.397       .  A
C1639      H1644   1.084       .  S
C1640      C1641   1.408       .  A
C1640      C1645   1.473       .  S
C1641      C1642   1.403       .  A
C1641      N1646   1.437       .  S
C1642      H1647   1.083       .  S
N1643      H1663   1.042       .  S
N1643      H1664   1.046       .  S
C1645      C1648   1.400       .  A
C1645      C1652   1.415       .  A
N1646      H1661   1.046       .  S
N1646      H1662   1.046       .  S
C1648      C1649   1.398       .  A
C1648      H1653   1.084       .  S
C1649      C1650   1.417       .  A
C1649      N1654   1.439       .  S
C1650      C1651   1.402       .  A
C1651      C1652   1.401       .  A
C1651      H1655   1.084       .  S
C1652      N1656   1.439       .  S
N1654      H1657   1.046       .  S
N1654      H1658   1.043       .  S
N1656      H1659   1.045       .  S
N1656      H1660   1.043       .  S
C1665      C1666   1.411       .  A
C1665      C1670   1.406       .  A
C1666      C1667   1.410       .  A
C1666      N1671   1.437       .  S
C1667      C1668   1.405       .  A
C1667      H1672   1.084       .  S
C1668      C1669   1.409       .  A
C1668      C1673   1.487       .  S
C1669      C1670   1.406       .  A
C1669      N1674   1.438       .  S
C1670      H1675   1.084       .  S
N1671      H1691   1.046       .  S
N1671      H1692   1.046       .  S
C1673      C1676   1.407       .  A
C1673      C1680   1.409       .  A
N1674      H1689   1.046       .  S
N1674      H1690   1.046       .  S
C1676      C1677   1.410       .  A
C1676      H1681   1.083       .  S
C1677      C1678   1.409       .  A
C1677      N1682   1.437       .  S
C1678      C1679   1.402       .  A
C1679      C1680   1.404       .  A
C1679      H1683   1.084       .  S
C1680      N1684   1.437       .  S
N1682      H1685   1.046       .  S
N1682      H1686   1.044       .  S
N1684      H1687   1.046       .  S
N1684      H1688   1.046       .  S
