geometry optimzed in LAMMPS
_audit_creation_date              2020-11-30 
_audit_creation_method            'lammps2cif' 
_symmetry_space_group_name_H-M    'P1' 
_symmetry_Int_Tables_number       1 
_symmetry_cell_setting            triclinic 
loop_ 
_symmetry_equiv_pos_as_xyz 
  x,y,z 
_cell_length_a                    56.78735714751981 
_cell_length_b                    56.66217536900803 
_cell_length_c                    56.648556838548295 
_cell_angle_alpha                 89.94109734186894 
_cell_angle_beta                  90.06421453827127 
_cell_angle_gamma                 89.98799391665474 
loop_ 
_atom_site_label 
_atom_site_type_symbol 
_atom_site_fract_x 
_atom_site_fract_y 
_atom_site_fract_z 
_atom_site_charge 
N1          N  0.66734395  0.71816569  0.73377510    -0.27490
N2          N  0.67134381  0.73804729  0.72232829    -0.35350
C3          C  0.65438628  0.75367795  0.72763690     0.00850
C4          C  0.63837486  0.74293673  0.74265129     0.06870
C5          C  0.64722821  0.72034068  0.74611198    -0.06220
H6          H  0.65366608  0.77148210  0.72078083     0.07540
H7          H  0.63958937  0.70644171  0.75672365     0.08740
Cu8        Cu  0.69836601  0.74182902  0.69827440     0.44170
Cu9        Cu  0.69107961  0.69032297  0.73330862     0.41990
Cu10       Cu  0.74731917  0.70188884  0.70287703     0.43880
N11         N  0.72549750  0.74059117  0.67405505    -0.34880
N12         N  0.74448650  0.72738752  0.67660185    -0.29130
C13         C  0.75893356  0.73124317  0.65816316    -0.05230
C14         C  0.74818845  0.74718757  0.64291200     0.06980
C15         C  0.72691965  0.75250455  0.65361828     0.00780
H16         H  0.77576356  0.72263676  0.65581955     0.08430
H17         H  0.71319347  0.76390318  0.64686371     0.07510
N18         N  0.74106605  0.67324848  0.72502717    -0.36330
N19         N  0.72048464  0.66858817  0.73494778    -0.28510
C20         C  0.72206324  0.64809629  0.74680811    -0.03750
C21         C  0.74469917  0.63944048  0.74439504     0.04860
C22         C  0.75628303  0.65585983  0.73049982     0.02960
H23         H  0.70772818  0.64005158  0.75647420     0.08060
H24         H  0.77437888  0.65511238  0.72459243     0.06900
N25         N  0.67164785  0.23059542  0.73904322    -0.27490
N26         N  0.67252690  0.21301736  0.72373727    -0.35350
C27         C  0.65368193  0.19899214  0.72698462     0.00850
C28         C  0.64020786  0.20831118  0.74508142     0.06870
C29         C  0.65214008  0.22834521  0.75227404    -0.06220
H30         H  0.64991784  0.18333807  0.71673341     0.07540
H31         H  0.64688076  0.24055810  0.76596103     0.08740
Cu32       Cu  0.69844384  0.20986290  0.69812295     0.44170
Cu33       Cu  0.69668483  0.25714474  0.74112775     0.41990
Cu34       Cu  0.74193592  0.25683972  0.69642503     0.43880
N35         N  0.72435838  0.21265146  0.67245780    -0.34880
N36         N  0.74009305  0.22985113  0.67176606    -0.29130
C37         C  0.75357267  0.22718656  0.65244234    -0.05230
C38         C  0.74592777  0.20739670  0.64040434     0.06980
C39         C  0.72741497  0.19859730  0.65358076     0.00780
H40         H  0.76763957  0.23900513  0.64731763     0.08430
H41         H  0.71660601  0.18342264  0.64944842     0.07510
N42         N  0.73970620  0.28218116  0.72273882    -0.36330
N43         N  0.72326330  0.28215801  0.73925410    -0.28510
C44         C  0.72637972  0.30101090  0.75333283    -0.03750
C45         C  0.74564692  0.31349209  0.74520625     0.04860
C46         C  0.75366562  0.30111386  0.72579377     0.02960
H47         H  0.71514470  0.30558571  0.76805333     0.08060
H48         H  0.76834676  0.30571765  0.71452829     0.06900
N49         N  0.28097216  0.22878679  0.74116127    -0.27490
N50         N  0.28231891  0.21391273  0.72323453    -0.35350
C51         C  0.30194080  0.20081785  0.72552494     0.00850
C52         C  0.31351632  0.20784344  0.74581783     0.06870
C53         C  0.29974565  0.22558084  0.75531163    -0.06220
H54         H  0.30755556  0.18742390  0.71314588     0.07540
H55         H  0.30337387  0.23575336  0.77105598     0.08740
Cu56       Cu  0.25801695  0.21264189  0.69593984     0.44170
Cu57       Cu  0.25449780  0.25375286  0.74481757     0.41990
Cu58       Cu  0.21114487  0.25586709  0.69805711     0.43880
N59         N  0.23124438  0.21469586  0.67112956    -0.34880
N60         N  0.21374019  0.23002376  0.67235574    -0.29130
C61         C  0.19929360  0.22674781  0.65384397    -0.05230
C62         C  0.20828851  0.20869638  0.64010228     0.06980
C63         C  0.22856570  0.20146527  0.65161185     0.00780
H64         H  0.18364173  0.23708780  0.65038285     0.08430
H65         H  0.24070484  0.18786405  0.64600538     0.07510
N66         N  0.21325518  0.28067850  0.72480886    -0.36330
N67         N  0.22859342  0.27945601  0.74233366    -0.28510
C68         C  0.22561753  0.29822239  0.75652236    -0.03750
C69         C  0.20775737  0.31211689  0.74732461     0.04860
C70         C  0.20034135  0.30043198  0.72719440     0.02960
H71         H  0.23609481  0.30179668  0.77207509     0.08060
H72         H  0.18689584  0.30611978  0.71489734     0.06900
N73         N  0.28253180  0.72211272  0.73783554    -0.27490
N74         N  0.27805269  0.74230487  0.72698636    -0.35350
C75         C  0.29557595  0.75759487  0.73174643     0.00850
C76         C  0.31204238  0.74636862  0.74597051     0.06870
C77         C  0.30315154  0.72387836  0.74933084    -0.06220
H78         H  0.29642916  0.77544513  0.72501926     0.07540
H79         H  0.31117458  0.70970038  0.75930038     0.08740
Cu80       Cu  0.24998289  0.74718018  0.70375850     0.44170
Cu81       Cu  0.26048201  0.69298527  0.73755902     0.41990
Cu82       Cu  0.21512618  0.69457749  0.69424367     0.43880
N83         N  0.22640023  0.74315868  0.67585416    -0.34880
N84         N  0.21526597  0.72315153  0.67154013    -0.29130
C85         C  0.20398472  0.72485506  0.65076259    -0.05230
C86         C  0.20765075  0.74723091  0.64162610     0.06980
C87         C  0.22189630  0.75838785  0.65815162     0.00780
H88         H  0.19403898  0.71067226  0.64277931     0.08430
H89         H  0.22887675  0.77611752  0.65718923     0.07510
N90         N  0.21680039  0.66902685  0.72024653    -0.36330
N91         N  0.23389326  0.66801718  0.73603684    -0.28510
C92         C  0.23040409  0.64917617  0.75008671    -0.03750
C93         C  0.21002287  0.63789165  0.74279634     0.04860
C94         C  0.20182531  0.65105165  0.72391274     0.02960
H95         H  0.24196636  0.64393578  0.76435043     0.08060
H96         H  0.18628180  0.64762563  0.71339823     0.06900
N97         N  0.28575362  0.73519436  0.23423455    -0.27490
N98         N  0.28356082  0.72091665  0.21596278    -0.35350
C99         C  0.30112526  0.72509271  0.20066381     0.00850
C100        C  0.31545091  0.74255014  0.20994009     0.06870
C101        C  0.30513121  0.74854116  0.23129136    -0.06220
H102        H  0.30343974  0.71586660  0.18412244     0.07540
H103        H  0.31131307  0.76153034  0.24382749     0.08740
Cu104      Cu  0.25752181  0.69559576  0.21343583     0.44170
Cu105      Cu  0.26121374  0.73631211  0.26131101     0.41990
Cu106      Cu  0.20676375  0.70291474  0.25078696     0.43880
N107        N  0.22961702  0.67222263  0.21413125    -0.34880
N108        N  0.21013367  0.67575282  0.22633095    -0.29130
C109        C  0.19518921  0.65778671  0.22216794    -0.05230
C110        C  0.20603980  0.64186715  0.20704123     0.06980
C111        C  0.22792212  0.65165470  0.20250492     0.00780
H112        H  0.17789447  0.65622365  0.22998692     0.08430
H113        H  0.24181003  0.64422919  0.19177635     0.07510
N114        N  0.21193939  0.72591944  0.27895297    -0.36330
N115        N  0.23200820  0.73696984  0.28329775    -0.28510
C116        C  0.23012597  0.74870417  0.30381979    -0.03750
C117        C  0.20777754  0.74506751  0.31281557     0.04860
C118        C  0.19671044  0.73058223  0.29653293     0.02960
H119        H  0.24412250  0.75895811  0.31174361     0.08060
H120        H  0.17901753  0.72358549  0.29759046     0.06900
N121        N  0.67266183  0.74033773  0.22972051    -0.27490
N122        N  0.66939517  0.72093498  0.21723942    -0.35350
C123        C  0.64924616  0.72298651  0.20491421     0.00850
C124        C  0.63952784  0.74495644  0.20949371     0.06870
C125        C  0.65502871  0.75550837  0.22518128    -0.06220
H126        H  0.64212370  0.70938061  0.19359547     0.07540
H127        H  0.65344249  0.77281494  0.23305303     0.08740
Cu128      Cu  0.69324918  0.69324954  0.21663407     0.44170
Cu129      Cu  0.69953165  0.74418626  0.25419156     0.41990
Cu130      Cu  0.74508794  0.69956275  0.25372160     0.43880
N131        N  0.72138998  0.66992884  0.21643518    -0.34880
N132        N  0.74039642  0.67231648  0.22973778    -0.29130
C133        C  0.75501786  0.65409801  0.22561292    -0.05230
C134        C  0.74473492  0.63963107  0.20886427     0.06980
C135        C  0.72347582  0.65022684  0.20340458     0.00780
H136        H  0.77168383  0.65134206  0.23447825     0.08430
H137        H  0.71035675  0.64392606  0.19105781     0.07510
N138        N  0.74296495  0.72606537  0.27885746    -0.36330
N139        N  0.72581219  0.74181808  0.27951005    -0.28510
C140        C  0.72792975  0.75471797  0.29931152    -0.03750
C141        C  0.74753886  0.74692289  0.31161361     0.04860
C142        C  0.75670356  0.72882423  0.29800484     0.02960
H143        H  0.71572142  0.76835740  0.30466111     0.08060
H144        H  0.77186066  0.71797742  0.30206303     0.06900
N145        N  0.67105614  0.21479535  0.23177622    -0.27490
N146        N  0.66934235  0.23314227  0.21746947    -0.35350
C147        C  0.65005832  0.23063678  0.20392354     0.00850
C148        C  0.63920245  0.20958797  0.20987496     0.06870
C149        C  0.65306835  0.19996688  0.22754535    -0.06220
H150        H  0.64429883  0.24326690  0.19079332     0.07540
H151        H  0.65018385  0.18351412  0.23680862     0.08740
Cu152      Cu  0.69381278  0.26020709  0.21661180     0.44170
Cu153      Cu  0.69718607  0.21150378  0.25703280     0.41990
Cu154      Cu  0.74620937  0.25206932  0.25288717     0.43880
N155        N  0.72233743  0.28296715  0.21657293    -0.34880
N156        N  0.74187921  0.27938419  0.22877549    -0.29130
C157        C  0.75694615  0.29717069  0.22443495    -0.05230
C158        C  0.74625751  0.31287890  0.20902501     0.06980
C159        C  0.72432531  0.30326975  0.20444517     0.00780
H160        H  0.77419644  0.29883777  0.23238276     0.08430
H161        H  0.71062996  0.31068423  0.19340999     0.07510
N162        N  0.74277055  0.22704263  0.27948937    -0.36330
N163        N  0.72438015  0.21286628  0.28132528    -0.28510
C164        C  0.72623318  0.20026717  0.30133786    -0.03750
C165        C  0.74691287  0.20657800  0.31260381     0.04860
C166        C  0.75699362  0.22358658  0.29820686     0.02960
H167        H  0.71329753  0.18762625  0.30739737     0.08060
H168        H  0.77326286  0.23302849  0.30129218     0.06900
N169        N  0.78276225  0.51322898  0.79118377    -0.27490
N170        N  0.79920997  0.52488109  0.80288539    -0.35350
C171        C  0.79711810  0.54806060  0.79835599     0.00850
C172        C  0.77848285  0.55118201  0.78300516     0.06870
C173        C  0.76975802  0.52876561  0.77876036    -0.06220
H174        H  0.80849662  0.56161101  0.80549764     0.07540
H175        H  0.75519892  0.52409877  0.76734758     0.08740
Cu176      Cu  0.82426975  0.50882159  0.82380450     0.44170
Cu177      Cu  0.77999474  0.47662855  0.79185296     0.41990
Cu178      Cu  0.83058975  0.44594034  0.81723973     0.43880
N179        N  0.84765495  0.48892045  0.84331431    -0.34880
N180        N  0.85022872  0.46586241  0.84091496    -0.29130
C181        C  0.86626930  0.45825064  0.85668732    -0.05230
C182        C  0.87408856  0.47750566  0.86952593     0.06980
C183        C  0.86198066  0.49663793  0.86053022     0.00780
H184        H  0.87164555  0.44005120  0.85883699     0.08430
H185        H  0.86340303  0.51483323  0.86614423     0.07510
N186        N  0.80436155  0.42956113  0.79761400    -0.36330
N187        N  0.78493267  0.44028575  0.79051140    -0.28510
C188        C  0.77043256  0.42422484  0.78081545    -0.03750
C189        C  0.78146297  0.40236579  0.78115563     0.04860
C190        C  0.80304886  0.40658132  0.79184949     0.02960
H191        H  0.75313169  0.42826731  0.77391280     0.08060
H192        H  0.81684386  0.39387520  0.79530303     0.06900
N193        N  0.16560577  0.51264658  0.78586414    -0.27490
N194        N  0.14789008  0.52392828  0.79589706    -0.35350
C195        C  0.15023034  0.54721081  0.79179827     0.00850
C196        C  0.17055114  0.55073307  0.77873847     0.06870
C197        C  0.17987345  0.52841164  0.77544647    -0.06220
H198        H  0.13807754  0.56056518  0.79792736     0.07540
H199        H  0.19583138  0.52392354  0.76604755     0.08740
Cu200      Cu  0.12273616  0.50704701  0.81634539     0.44170
Cu201      Cu  0.16932858  0.47633262  0.78618967     0.41990
Cu202      Cu  0.13685358  0.44581129  0.83097122     0.43880
N203        N  0.10511508  0.48721932  0.84153023    -0.34880
N204        N  0.11150614  0.46575543  0.84810503    -0.29130
C205        C  0.09791002  0.45882757  0.86623225    -0.05230
C206        C  0.08187281  0.47658714  0.87107513     0.06980
C207        C  0.08693328  0.49426919  0.85495804     0.00780
H208        H  0.09950823  0.44199976  0.87512763     0.08430
H209        H  0.07818863  0.51114614  0.85323194     0.07510
N210        N  0.15801789  0.42873726  0.80658338    -0.36330
N211        N  0.16917784  0.43997410  0.78949279    -0.28510
C212        C  0.17974222  0.42410478  0.77542201    -0.03750
C213        C  0.17525057  0.40175467  0.78422523     0.04860
C214        C  0.16144007  0.40538885  0.80403601     0.02960
H215        H  0.18983590  0.42851674  0.75984485     0.08060
H216        H  0.15418797  0.39203755  0.81559627     0.06900
N217        N  0.78928661  0.51297723  0.16823602    -0.27490
N218        N  0.79657892  0.52383409  0.14894107    -0.35350
C219        C  0.79093727  0.54683316  0.15041382     0.00850
C220        C  0.78018725  0.55090420  0.17202751     0.06870
C221        C  0.77967769  0.52894041  0.18287174    -0.06220
H222        H  0.79456733  0.55964751  0.13673359     0.07540
H223        H  0.77277598  0.52475686  0.20016126     0.08740
Cu224      Cu  0.81666272  0.50748769  0.12308956     0.44170
Cu225      Cu  0.79041204  0.47666282  0.17273371     0.41990
Cu226      Cu  0.82604474  0.44473769  0.13132172     0.43880
N227        N  0.84124836  0.48795264  0.10428302    -0.34880
N228        N  0.84473468  0.46509853  0.10754727    -0.29130
C229        C  0.86213538  0.45777923  0.09327164    -0.05230
C230        C  0.87005306  0.47695172  0.08049426     0.06980
C231        C  0.85649473  0.49582050  0.08789198     0.00780
H232        H  0.86858254  0.43983084  0.09230171     0.08430
H233        H  0.85763020  0.51389940  0.08182050     0.07510
N234        N  0.80412088  0.42842670  0.15542364    -0.36330
N235        N  0.79057775  0.44012875  0.17031490    -0.28510
C236        C  0.77743377  0.42461586  0.18253324    -0.03750
C237        C  0.78322444  0.40203942  0.17516385     0.04860
C238        C  0.80026334  0.40516760  0.15800323     0.02960
H239        H  0.76451327  0.42942400  0.19570058     0.08060
H240        H  0.80911381  0.39154534  0.14800376     0.06900
N241        N  0.16667455  0.51361307  0.16645679    -0.27490
N242        N  0.15221834  0.52495549  0.15204110    -0.35350
C243        C  0.15492712  0.54832155  0.15512462     0.00850
C244        C  0.17188345  0.55187479  0.17227653     0.06870
C245        C  0.17896656  0.52951396  0.17908860    -0.06220
H246        H  0.14522649  0.56174845  0.14561029     0.07540
H247        H  0.19213528  0.52513183  0.19220100     0.08740
Cu248      Cu  0.12924436  0.50853170  0.12879922     0.44170
Cu249      Cu  0.16906973  0.47705577  0.16844470     0.41990
Cu250      Cu  0.12945940  0.44513927  0.12990650     0.43880
N251        N  0.10760405  0.48799545  0.10765502    -0.34880
N252        N  0.10776066  0.46467652  0.10814141    -0.29130
C253        C  0.09188823  0.45645488  0.09258774    -0.05230
C254        C  0.08118778  0.47553697  0.08183583     0.06980
C255        C  0.09156614  0.49527562  0.09174651     0.00780
H256        H  0.08846737  0.43796202  0.08928464     0.08430
H257        H  0.08773549  0.51354713  0.08770080     0.07510
N258        N  0.15260527  0.42897200  0.15291083    -0.36330
N259        N  0.16729893  0.44045156  0.16690844    -0.28510
C260        C  0.18000249  0.42464532  0.17929371    -0.03750
C261        C  0.17285083  0.40221725  0.17274644     0.04860
C262        C  0.15544791  0.40565296  0.15604686     0.02960
H263        H  0.19347037  0.42912883  0.19204775     0.08060
H264        H  0.14557044  0.39217941  0.14682097     0.06900
O265        O  0.95164651  0.45835925  0.95085546    -0.73150
O266        O  0.00040765  0.45561685  0.00219465    -0.74130
O267        O  0.95055652  0.45686772  0.00114255    -0.62750
O268        O  0.00172491  0.45724008  0.95239248    -0.71160
O269        O  0.00087015  0.49606163  0.95164484    -0.70710
O270        O  0.95202303  0.49595463  0.00281529    -0.61960
O271        O  0.00215576  0.49476124  0.00192997    -0.74470
O272        O  0.95115461  0.49750084  0.95279645    -0.73250
Cu273      Cu  0.97600912  0.45565985  0.97660400     1.04560
Cu274      Cu  0.97659877  0.49743611  0.97738326     1.04330
C275        C  0.94368768  0.47826451  0.94380243     0.93050
C276        C  0.00919763  0.47485419  0.00989895     0.92190
C277        C  0.94335755  0.47636429  0.00984983     0.84340
C278        C  0.00932671  0.47667484  0.94392993     0.90610
N279        N  0.44001183  0.78470365  0.78742884    -0.27490
N280        N  0.42892579  0.79766930  0.80331479    -0.35350
C281        C  0.40557228  0.79508427  0.80046008     0.00850
C282        C  0.40171516  0.77961128  0.78199995     0.06870
C283        C  0.42394499  0.77334950  0.77415152    -0.06220
H284        H  0.39235661  0.80396220  0.81095187     0.07540
H285        H  0.42812461  0.76147092  0.75981079     0.08740
Cu286      Cu  0.44578057  0.81904112  0.82764685     0.44170
Cu287      Cu  0.47645002  0.78375485  0.78417270     0.41990
Cu288      Cu  0.50796576  0.82774259  0.81823236     0.43880
N289        N  0.46584969  0.84298333  0.84649124    -0.34880
N290        N  0.48821554  0.84732492  0.84181207    -0.29130
C291        C  0.49570914  0.86503758  0.85565313    -0.05230
C292        C  0.47729558  0.87191425  0.87010252     0.06980
C293        C  0.45865400  0.85744994  0.86383636     0.00780
H294        H  0.51334057  0.87225822  0.85531924     0.08430
H295        H  0.44109003  0.85752564  0.87120998     0.07510
N296        N  0.52437035  0.80289212  0.79714807    -0.36330
N297        N  0.51291522  0.78681570  0.78470752    -0.28510
C298        C  0.52864340  0.77326810  0.77326378    -0.03750
C299        C  0.55098510  0.78114011  0.77893435     0.04860
C300        C  0.54766825  0.79992221  0.79408365     0.02960
H301        H  0.52416482  0.75875895  0.76169395     0.08060
H302        H  0.56116500  0.81068957  0.80219597     0.06900
N303        N  0.44077299  0.16919099  0.79013739    -0.27490
N304        N  0.43011002  0.14944935  0.79648015    -0.35350
C305        C  0.40718005  0.15089163  0.79079581     0.00850
C306        C  0.40293001  0.17281886  0.78083995     0.06870
C307        C  0.42469570  0.18396798  0.78081809    -0.06220
H308        H  0.39451589  0.13696002  0.79380898     0.07540
H309        H  0.42863105  0.20149758  0.77436578     0.08740
Cu310      Cu  0.44639157  0.12227683  0.81469063     0.44170
Cu311      Cu  0.47705470  0.17410662  0.79228241     0.41990
Cu312      Cu  0.50898105  0.12641471  0.82056046     0.43880
N313        N  0.46572174  0.10115320  0.83738706    -0.34880
N314        N  0.48880193  0.10291894  0.83977114    -0.29130
C315        C  0.49600647  0.08815140  0.85690287    -0.05230
C316        C  0.47648252  0.07654875  0.86569709     0.06980
C317        C  0.45757339  0.08519514  0.85294282     0.00780
H318        H  0.51402884  0.08638795  0.86288064     0.08430
H319        H  0.43920696  0.08062400  0.85517498     0.07510
N320        N  0.52493074  0.15264910  0.80088398    -0.36330
N321        N  0.51355320  0.17061104  0.79126387    -0.28510
C322        C  0.52918360  0.18445318  0.77996000    -0.03750
C323        C  0.55139896  0.17459559  0.78248474     0.04860
C324        C  0.54795883  0.15442578  0.79579379     0.02960
H325        H  0.52467774  0.20035374  0.77037775     0.08060
H326        H  0.56121905  0.14183343  0.80125687     0.06900
N327        N  0.44041596  0.78536983  0.16545726    -0.27490
N328        N  0.42898989  0.79685801  0.14864869    -0.35350
C329        C  0.40572155  0.79327340  0.15131531     0.00850
C330        C  0.40238863  0.77887771  0.17076480     0.06870
C331        C  0.42474273  0.77424129  0.17930181    -0.06220
H332        H  0.39224659  0.80059072  0.13994205     0.07540
H333        H  0.42928472  0.76349787  0.19444164     0.08740
Cu334      Cu  0.44550029  0.81783883  0.12367006     0.44170
Cu335      Cu  0.47675769  0.78511601  0.16888826     0.41990
Cu336      Cu  0.50782340  0.82793458  0.13397952     0.43880
N337        N  0.46553009  0.84208227  0.10506092    -0.34880
N338        N  0.48776472  0.84686266  0.11003563    -0.29130
C339        C  0.49508679  0.86468610  0.09622950    -0.05230
C340        C  0.47672881  0.87119783  0.08150414     0.06980
C341        C  0.45827797  0.85641024  0.08757103     0.00780
H342        H  0.51257273  0.87223780  0.09678511     0.08430
H343        H  0.44079921  0.85617696  0.07996418     0.07510
N344        N  0.52456071  0.80366831  0.15555601    -0.36330
N345        N  0.51314838  0.78780312  0.16827496    -0.28510
C346        C  0.52887210  0.77432163  0.17984726    -0.03750
C347        C  0.55122294  0.78209072  0.17407115     0.04860
C348        C  0.54786020  0.80070443  0.15864054     0.02960
H349        H  0.52438305  0.75991794  0.19156518     0.08060
H350        H  0.56133777  0.81131503  0.15029734     0.06900
N351        N  0.44084469  0.16742978  0.16660654    -0.27490
N352        N  0.42950789  0.15074899  0.15492030    -0.35350
C353        C  0.40624532  0.15327289  0.15842328     0.00850
C354        C  0.40274829  0.17229947  0.17327921     0.06870
C355        C  0.42508150  0.18081959  0.17816644    -0.06220
H356        H  0.39286275  0.14216204  0.15059103     0.07540
H357        H  0.42953854  0.19572433  0.18922795     0.08740
Cu358      Cu  0.44600369  0.12549143  0.13452017     0.44170
Cu359      Cu  0.47714176  0.17146683  0.16578606     0.41990
Cu360      Cu  0.50885995  0.13094957  0.12764583     0.43880
N361        N  0.46566630  0.10470404  0.11202748    -0.34880
N362        N  0.48842073  0.10771420  0.10829811    -0.29130
C363        C  0.49540094  0.09297871  0.09108393    -0.05230
C364        C  0.47615808  0.07974833  0.08392881     0.06980
C365        C  0.45766965  0.08758511  0.09775701     0.00780
H366        H  0.51316150  0.09202442  0.08426525     0.08430
H367        H  0.43961457  0.08151249  0.09730031     0.07510
N368        N  0.52505931  0.15445886  0.15040907    -0.36330
N369        N  0.51356445  0.16991728  0.16351859    -0.28510
C370        C  0.52921628  0.18271827  0.17588849    -0.03750
C371        C  0.55163985  0.17464292  0.17066760     0.04860
C372        C  0.54827506  0.15665964  0.15448921     0.02960
H373        H  0.52456920  0.19662757  0.18809239     0.08060
H374        H  0.56168895  0.14574569  0.14647040     0.06900
O375        O  0.45732347  0.95046154  0.00029970    -0.73150
O376        O  0.45571585  0.00164253  0.95101685    -0.74130
O377        O  0.45777702  0.95152679  0.95054222    -0.62750
O378        O  0.45511023  0.00020342  0.00178710    -0.71160
O379        O  0.49394690  0.00291025  0.00116613    -0.70710
O380        O  0.49664786  0.95305393  0.95095503    -0.61960
O381        O  0.49478289  0.00265544  0.95106390    -0.74470
O382        O  0.49612136  0.95316657  0.00166700    -0.73250
Cu383      Cu  0.45511950  0.97597890  0.97587790     1.04560
Cu384      Cu  0.49671583  0.97799951  0.97624490     1.04330
C385        C  0.47698691  0.94396221  0.00912294     0.93050
C386        C  0.47508940  0.00971230  0.94280055     0.92190
C387        C  0.47758190  0.94454734  0.94250978     0.84340
C388        C  0.47414685  0.00902089  0.00992762     0.90610
N389        N  0.28483171  0.21762394  0.23305026    -0.27490
N390        N  0.28189789  0.23051320  0.21386026    -0.35350
C391        C  0.29944602  0.22589056  0.19866235     0.00850
C392        C  0.31468568  0.20981220  0.20906812     0.06870
C393        C  0.30482034  0.20510568  0.23097000    -0.06220
H394        H  0.30101697  0.23383132  0.18137277     0.07540
H395        H  0.31163608  0.19343776  0.24446304     0.08740
Cu396      Cu  0.25546811  0.25540143  0.21056951     0.44170
Cu397      Cu  0.26020455  0.21625569  0.25993217     0.41990
Cu398      Cu  0.20740345  0.25225701  0.25233749     0.43880
N399        N  0.22871866  0.28010224  0.21254088    -0.34880
N400        N  0.21018488  0.27801951  0.22644671    -0.29130
C401        C  0.19586847  0.29660579  0.22292421    -0.05230
C402        C  0.20623254  0.31153462  0.20651425     0.06980
C403        C  0.22712331  0.30045027  0.20046939     0.00780
H404        H  0.17941137  0.29929827  0.23212024     0.08430
H405        H  0.24049038  0.30690048  0.18850747     0.07510
N406        N  0.21244953  0.22866768  0.27994701    -0.36330
N407        N  0.23150457  0.21547272  0.28245884    -0.28510
C408        C  0.22943784  0.20247941  0.30219381    -0.03750
C409        C  0.20827391  0.20802686  0.31290629     0.04860
C410        C  0.19796077  0.22471014  0.29830544     0.02960
H411        H  0.24261068  0.19019568  0.30851698     0.08060
H412        H  0.18137668  0.23369214  0.30107545     0.06900
N413        N  0.78405976  0.78856725  0.51362251    -0.27490
N414        N  0.79786867  0.80364766  0.52482428    -0.35350
C415        C  0.79556715  0.80045242  0.54820907     0.00850
C416        C  0.77943610  0.78258415  0.55197954     0.06870
C417        C  0.77247014  0.77543226  0.52966350    -0.06220
H418        H  0.80507051  0.81031405  0.56150523     0.07540
H419        H  0.75997028  0.76166454  0.52540988     0.08740
Cu420      Cu  0.81994836  0.82735698  0.50808493     0.44170
Cu421      Cu  0.78254547  0.78610890  0.47704499     0.41990
Cu422      Cu  0.82917455  0.81747425  0.44608242     0.43880
N423        N  0.84384132  0.84628585  0.48810176    -0.34880
N424        N  0.84823824  0.84170514  0.46567713    -0.29130
C425        C  0.86557362  0.85599553  0.45814984    -0.05230
C426        C  0.87220108  0.87050216  0.47666838     0.06980
C427        C  0.85795592  0.86388222  0.49535226     0.00780
H428        H  0.87272974  0.85590926  0.44046064     0.08430
H429        H  0.85793714  0.87120925  0.51297826     0.07510
N430        N  0.80412256  0.79669831  0.42949406    -0.36330
N431        N  0.78664750  0.78598124  0.44058560    -0.28510
C432        C  0.77280012  0.77531291  0.42453223    -0.03750
C433        C  0.78209444  0.77939096  0.40230170     0.04860
C434        C  0.80197379  0.79295978  0.40616230     0.02960
H435        H  0.75706243  0.76540376  0.42872697     0.08060
H436        H  0.81390652  0.79981222  0.39294956     0.06900
N437        N  0.16746642  0.78766500  0.51338393    -0.27490
N438        N  0.15246712  0.80142741  0.52475705    -0.35350
C439        C  0.15541852  0.79847225  0.54812723     0.00850
C440        C  0.17309150  0.78206491  0.55166466     0.06870
C441        C  0.18035389  0.77557351  0.52927676    -0.06220
H442        H  0.14539022  0.80756208  0.56157074     0.07540
H443        H  0.19387617  0.76286458  0.52487267     0.08740
Cu444      Cu  0.12839194  0.82353695  0.50831069     0.44170
Cu445      Cu  0.16951620  0.78569842  0.47677320     0.41990
Cu446      Cu  0.12757173  0.82188380  0.44477087     0.43880
N447        N  0.10600200  0.84404717  0.48788166    -0.34880
N448        N  0.10564378  0.84328788  0.46455342    -0.29130
C449        C  0.08958556  0.85876470  0.45648133    -0.05230
C450        C  0.07940912  0.86974270  0.47566886     0.06980
C451        C  0.09019428  0.86009169  0.49530689     0.00780
H452        H  0.08585892  0.86203347  0.43802872     0.08430
H453        H  0.08698281  0.86457025  0.51358488     0.07510
N454        N  0.15169820  0.79983507  0.42857997    -0.36330
N455        N  0.16716824  0.78672985  0.44013579    -0.28510
C456        C  0.18020173  0.77465683  0.42440722    -0.03750
C457        C  0.17250241  0.78045435  0.40193301     0.04860
C458        C  0.15442090  0.79643141  0.40526207     0.02960
H459        H  0.19421680  0.76253858  0.42897712     0.08060
H460        H  0.14393965  0.80490127  0.39172238     0.06900
N461        N  0.78427148  0.16244775  0.51318538    -0.27490
N462        N  0.80352010  0.15506299  0.52404830    -0.35350
C463        C  0.80215194  0.16070206  0.54703942     0.00850
C464        C  0.78075620  0.17172086  0.55109989     0.06870
C465        C  0.76986028  0.17240553  0.52916626    -0.06220
H466        H  0.81574258  0.15689433  0.55988066     0.07540
H467        H  0.75273408  0.17969298  0.52505766     0.08740
Cu468      Cu  0.82970234  0.13545035  0.50787860     0.44170
Cu469      Cu  0.77957382  0.16061901  0.47681483     0.41990
Cu470      Cu  0.82475506  0.12832934  0.44520392     0.43880
N471        N  0.84967938  0.11153404  0.48885386    -0.34880
N472        N  0.84749500  0.10854168  0.46581573    -0.29130
C473        C  0.86193253  0.09106006  0.45887556    -0.05230
C474        C  0.87374168  0.08275071  0.47852947     0.06980
C475        C  0.86561606  0.09608439  0.49722778     0.00780
H476        H  0.86373766  0.08491217  0.44089189     0.08430
H477        H  0.87074637  0.09453181  0.51556488     0.07510
N478        N  0.80011890  0.14982471  0.42895284    -0.36330
N479        N  0.78316177  0.16109712  0.44027535    -0.28510
C480        C  0.77022834  0.17330277  0.42450344    -0.03750
C481        C  0.77960034  0.16958444  0.40224217     0.04860
C482        C  0.79855334  0.15467059  0.40578442     0.02960
H483        H  0.75520002  0.18417070  0.42892218     0.08060
H484        H  0.81039161  0.14785390  0.39247723     0.06900
N485        N  0.16462147  0.16908403  0.51298995    -0.27490
N486        N  0.14849080  0.15691190  0.52453644    -0.35350
C487        C  0.15146782  0.16021811  0.54784651     0.00850
C488        C  0.17067657  0.17491484  0.55117362     0.06870
C489        C  0.17863044  0.18007045  0.52863741    -0.06220
H490        H  0.14055664  0.15233896  0.56136488     0.07540
H491        H  0.19355435  0.19095915  0.52393430     0.08740
Cu492      Cu  0.12482722  0.13470993  0.50789457     0.44170
Cu493      Cu  0.16650261  0.17017573  0.47651772     0.41990
Cu494      Cu  0.13711456  0.12263324  0.44586866     0.43880
N495        N  0.10697760  0.10995903  0.48788330    -0.34880
N496        N  0.11199134  0.10486110  0.46566763    -0.29130
C497        C  0.09759388  0.08750845  0.45830363    -0.05230
C498        C  0.08281594  0.08148004  0.47676020     0.06980
C499        C  0.08923488  0.09609498  0.49519253     0.00780
H500        H  0.09780440  0.07991137  0.44078831     0.08430
H501        H  0.08162055  0.09656514  0.51268884     0.07510
N502        N  0.15769305  0.14784957  0.42914703    -0.36330
N503        N  0.16665678  0.16629659  0.44019364    -0.28510
C504        C  0.17646284  0.18083878  0.42425434    -0.03750
C505        C  0.17418949  0.17081846  0.40205785     0.04860
C506        C  0.16225202  0.14980681  0.40593474     0.02960
H507        H  0.18465048  0.19751414  0.42857853     0.08060
H508        H  0.15705348  0.13693851  0.39284647     0.06900
O509        O  0.95212043  0.95132675  0.49625369    -0.73150
O510        O  0.00206371  0.00139104  0.49689094    -0.74130
O511        O  0.95240353  0.00117629  0.49831567    -0.62750
O512        O  0.00235586  0.95099592  0.49508202    -0.71160
O513        O  0.00169760  0.95220033  0.45588800    -0.70710
O514        O  0.95144981  0.00214271  0.45912009    -0.61960
O515        O  0.00171143  0.00212175  0.45788106    -0.74470
O516        O  0.95208276  0.95178044  0.45726874    -0.73250
Cu517      Cu  0.97730924  0.97613669  0.49799535     1.04560
Cu518      Cu  0.97666947  0.97716366  0.45617908     1.04330
C519        C  0.94419905  0.94346609  0.47666651     0.93050
C520        C  0.00980555  0.00980286  0.47746975     0.92190
C521        C  0.94410520  0.00953723  0.47912275     0.84340
C522        C  0.00978039  0.94364826  0.47509537     0.90610
C523        C  0.04653309  0.02818573  0.49475045    -0.02050
C524        C  0.02828481  0.02848448  0.47760179     0.07630
C525        C  0.02800152  0.04673530  0.46041148    -0.02160
C526        C  0.04557345  0.06427748  0.46048437    -0.02160
C527        C  0.06416737  0.06325208  0.47692878     0.07760
C528        C  0.06472692  0.04503703  0.49386167    -0.02360
Br529      Br  0.09131623  0.04219408  0.51505293    -0.00910
Br530      Br  0.04755645  0.00469694  0.51956192    -0.00980
Br531      Br  0.04331453  0.09060539  0.43885000    -0.00940
Br532      Br  0.00306525  0.04900987  0.43719077    -0.00920
C533        C  0.90198670  0.02218667  0.47820624    -0.02050
C534        C  0.92599555  0.02811717  0.48004890     0.07630
C535        C  0.93270716  0.05188878  0.48269895    -0.02160
C536        C  0.91556828  0.06980323  0.48209481    -0.02160
C537        C  0.89162874  0.06392877  0.47932351     0.07760
C538        C  0.88480748  0.04008522  0.47763695    -0.02360
Br539      Br  0.85190550  0.03196020  0.47511008    -0.00910
Br540      Br  0.89261480  0.98952996  0.47778500    -0.00980
Br541      Br  0.92492418  0.10246285  0.48431785    -0.00940
Br542      Br  0.96530679  0.05984153  0.48779932    -0.00920
C543        C  0.06872352  0.91242363  0.47636607    -0.02050
C544        C  0.06162375  0.88864907  0.47515025     0.07630
C545        C  0.03760111  0.88298611  0.47275630    -0.02160
C546        C  0.02063265  0.90108128  0.47221689    -0.02160
C547        C  0.02766121  0.92483499  0.47422602     0.07760
C548        C  0.05176251  0.93050724  0.47555741    -0.02360
Br549      Br  0.06157622  0.96301131  0.47490586    -0.00910
Br550      Br  0.10172292  0.92015288  0.47887082    -0.00980
Br551      Br  0.98783867  0.89341384  0.46798969    -0.00940
Br552      Br  0.02800062  0.85041277  0.47047410    -0.00920
C553        C  0.89048942  0.90678626  0.45909709    -0.02050
C554        C  0.89063789  0.88903958  0.47656905     0.07630
C555        C  0.90849171  0.88897400  0.49389835    -0.02160
C556        C  0.92570468  0.90687047  0.49420762    -0.02160
C557        C  0.92586005  0.92460107  0.47647502     0.07760
C558        C  0.90831937  0.92406363  0.45858991    -0.02360
Br559      Br  0.90766289  0.94708147  0.43330252    -0.00910
Br560      Br  0.86490072  0.90855603  0.43657713    -0.00980
Br561      Br  0.94959733  0.90573045  0.51861873    -0.00940
Br562      Br  0.91044678  0.86345088  0.51653931    -0.00920
C563        C  0.17659250  0.18896370  0.33723169    -0.02050
C564        C  0.19930567  0.19892707  0.33573228     0.07630
C565        C  0.21360316  0.19993514  0.35609339    -0.02160
C566        C  0.20581700  0.18987508  0.37742050    -0.02160
C567        C  0.18277379  0.18051997  0.37920388     0.07760
C568        C  0.16801564  0.18064735  0.35903697    -0.02360
Br569      Br  0.13545681  0.17094527  0.36111673    -0.00910
Br570      Br  0.15749265  0.18545110  0.30919551    -0.00980
Br571      Br  0.22778353  0.18764680  0.40343320    -0.00940
Br572      Br  0.24342612  0.21639316  0.35541047    -0.00920
C573        C  0.34206260  0.17569673  0.20126808    -0.02050
C574        C  0.33695138  0.20007712  0.19920966     0.07630
C575        C  0.35343868  0.21508587  0.18794662    -0.02160
C576        C  0.37434665  0.20571720  0.17847021    -0.02160
C577        C  0.37998757  0.18172014  0.18185114     0.07760
C578        C  0.36386606  0.16679785  0.19350167    -0.02360
Br579      Br  0.37202829  0.13433834  0.20015090    -0.00910
Br580      Br  0.31888679  0.15376771  0.21325441    -0.00980
Br581      Br  0.39461000  0.22569084  0.15968213    -0.00940
Br582      Br  0.34878034  0.24885978  0.18669232    -0.00920
C583        C  0.45584591  0.04377065  0.03108537    -0.02050
C584        C  0.47355857  0.02623423  0.02975960     0.07630
C585        C  0.49118601  0.02546137  0.04746309    -0.02160
C586        C  0.49181954  0.04271100  0.06533760    -0.02160
C587        C  0.47531479  0.06134601  0.06534379     0.07760
C588        C  0.45745819  0.06188725  0.04798333    -0.02360
Br589      Br  0.43611579  0.08843678  0.04581713    -0.00910
Br590      Br  0.42867778  0.04322046  0.01057964    -0.00980
Br591      Br  0.51460286  0.03975113  0.09057044    -0.00940
Br592      Br  0.51335831  0.99953355  0.04889889    -0.00920
C593        C  0.45943773  0.92521984  0.04545709    -0.02050
C594        C  0.47743771  0.92575786  0.02814262     0.07630
C595        C  0.49561545  0.90864216  0.02911209    -0.02160
C596        C  0.49503264  0.89056671  0.04617396    -0.02160
C597        C  0.47691658  0.88992916  0.06319113     0.07760
C598        C  0.45927623  0.90748301  0.06291185    -0.02360
Br599      Br  0.43546291  0.90827964  0.08728344    -0.00910
Br600      Br  0.43570595  0.94971965  0.04680813    -0.00980
Br601      Br  0.51842834  0.86574004  0.04498196    -0.00940
Br602      Br  0.52150173  0.90909208  0.00707874    -0.00920
C603        C  0.48776134  0.03768362  0.88330081    -0.02050
C604        C  0.47587977  0.05942242  0.88534879     0.07630
C605        C  0.46357466  0.06482946  0.90625449    -0.02160
C606        C  0.46312301  0.04852382  0.92500220    -0.02160
C607        C  0.47498090  0.02676016  0.92301123     0.07760
C608        C  0.48724321  0.02135653  0.90202960    -0.02360
Br609      Br  0.50245052  0.99107044  0.89837069    -0.00910
Br610      Br  0.50406061  0.02983686  0.85446039    -0.00980
Br611      Br  0.44734311  0.05673860  0.95382895    -0.00940
Br612      Br  0.44843617  0.09515862  0.90983918    -0.00920
C613        C  0.49616707  0.90915137  0.92262751    -0.02050
C614        C  0.47821520  0.92652891  0.92332682     0.07630
C615        C  0.46044757  0.92627159  0.90570627    -0.02160
C616        C  0.46020839  0.90850271  0.88832274    -0.02160
C617        C  0.47758085  0.89068418  0.88834174     0.07760
C618        C  0.49550962  0.89107502  0.90559944    -0.02360
Br619      Br  0.51847184  0.86586016  0.90720947    -0.00910
Br620      Br  0.52185748  0.90920008  0.94495452    -0.00980
Br621      Br  0.43660110  0.90955152  0.86369723    -0.00940
Br622      Br  0.43712398  0.95114770  0.90382585    -0.00920
C623        C  0.19130198  0.36279805  0.16558574    -0.02050
C624        C  0.18177390  0.37930800  0.18151915     0.07630
C625        C  0.18020554  0.37362874  0.20567909    -0.02160
C626        C  0.18878387  0.35183145  0.21401540    -0.02160
C627        C  0.19756823  0.33481902  0.19795164     0.07760
C628        C  0.19840504  0.34037748  0.17358647    -0.02360
Br629      Br  0.20773732  0.31706730  0.15051894    -0.00910
Br630      Br  0.19569873  0.37123278  0.13281104    -0.00980
Br631      Br  0.18969552  0.34647139  0.24769920    -0.00940
Br632      Br  0.16517206  0.39523301  0.22731823    -0.00920
C633        C  0.06772373  0.48397297  0.04070566    -0.02050
C634        C  0.06287460  0.47489089  0.06334492     0.07630
C635        C  0.04066222  0.46482725  0.06813598    -0.02160
C636        C  0.02323307  0.46423360  0.05045060    -0.02160
C637        C  0.02780723  0.47414133  0.02808119     0.07760
C638        C  0.05023381  0.48355604  0.02313017    -0.02360
Br639      Br  0.05761051  0.49432651  0.99174906    -0.00910
Br640      Br  0.09870380  0.49595303  0.03333496    -0.00980
Br641      Br  0.99296766  0.45022251  0.05707840    -0.00940
Br642      Br  0.03364594  0.45287085  0.09926571    -0.00920
C643        C  0.91007950  0.48899263  0.06661431    -0.02050
C644        C  0.88876654  0.47698036  0.06244933     0.07630
C645        C  0.88549022  0.46448847  0.04122163    -0.02160
C646        C  0.90356279  0.46375005  0.02427407    -0.02160
C647        C  0.92473692  0.47629185  0.02810284     0.07760
C648        C  0.92791481  0.48894083  0.04936565    -0.02360
Br649      Br  0.95713244  0.50526060  0.05560477    -0.00910
Br650      Br  0.91529210  0.50454278  0.09648117    -0.00980
Br651      Br  0.89871997  0.44601379  0.99556635    -0.00940
Br652      Br  0.85572153  0.44925953  0.03486912    -0.00920
C653        C  0.06105357  0.49605428  0.90494782    -0.02050
C654        C  0.06334930  0.47665787  0.88956282     0.07630
C655        C  0.04793221  0.45730663  0.89189018    -0.02160
C656        C  0.03111277  0.45675198  0.91015892    -0.02160
C657        C  0.02793681  0.47670075  0.92512850     0.07760
C658        C  0.04283780  0.49665802  0.92181554    -0.02360
Br659      Br  0.03941775  0.52535864  0.94007220    -0.00910
Br660      Br  0.08397579  0.52134728  0.90424552    -0.00980
Br661      Br  0.01262975  0.42817384  0.91346343    -0.00940
Br662      Br  0.04856523  0.43199380  0.86894957    -0.00920
C663        C  0.88573908  0.48585635  0.91136907    -0.02050
C664        C  0.89184339  0.47782273  0.88859386     0.07630
C665        C  0.91521004  0.47096533  0.88381426    -0.02160
C666        C  0.93220992  0.47154546  0.90185953    -0.02160
C667        C  0.92599714  0.47895894  0.92474307     0.07760
C668        C  0.90291399  0.48683167  0.92929138    -0.02360
Br669      Br  0.89483298  0.49909371  0.95999456    -0.00910
Br670      Br  0.85361014  0.49442002  0.91845541    -0.00980
Br671      Br  0.96448718  0.46400800  0.89473360    -0.00940
Br672      Br  0.92435119  0.46197362  0.85224669    -0.00920
C673        C  0.59814639  0.19405621  0.21494440    -0.02050
C674        C  0.61708831  0.19991649  0.19992695     0.07630
C675        C  0.61468694  0.19689986  0.17531593    -0.02160
C676        C  0.59318101  0.18910925  0.16570575    -0.02160
C677        C  0.57428533  0.18299200  0.18073423     0.07760
C678        C  0.57710389  0.18498205  0.20544725    -0.02360
Br679      Br  0.55279533  0.17409782  0.22668882    -0.00910
Br680      Br  0.60025008  0.19967465  0.24852873    -0.00980
Br681      Br  0.58949106  0.18828108  0.13179873    -0.00940
Br682      Br  0.64118986  0.20231846  0.15463623    -0.00920
C683        C  0.75574561  0.34083218  0.17592855    -0.02050
C684        C  0.75564191  0.33572451  0.20034355     0.07630
C685        C  0.76429895  0.35265950  0.21645553    -0.02160
C686        C  0.77376265  0.37407793  0.20817826    -0.02160
C687        C  0.77345740  0.37936645  0.18382389     0.07760
C688        C  0.76403678  0.36279675  0.16777161    -0.02360
Br689      Br  0.76120882  0.37047309  0.13463969    -0.00910
Br690      Br  0.74569915  0.31739636  0.15329239    -0.00980
Br691      Br  0.78830393  0.39549528  0.23035959    -0.00940
Br692      Br  0.76204729  0.34742424  0.25009386    -0.00920
C693        C  0.75823660  0.17271895  0.33876469    -0.02050
C694        C  0.75580750  0.19730271  0.33543013     0.07630
C695        C  0.76124245  0.21281332  0.35418032    -0.02160
C696        C  0.76932603  0.20379898  0.37592780    -0.02160
C697        C  0.77119257  0.17919311  0.37939544     0.07760
C698        C  0.76539393  0.16370124  0.36078507    -0.02360
Br699      Br  0.76598670  0.12994369  0.36564803    -0.00910
Br700      Br  0.75294117  0.15116420  0.31287869    -0.00980
Br701      Br  0.77882545  0.22536874  0.40054464    -0.00940
Br702      Br  0.75650384  0.24640638  0.35075990    -0.00920
C703        C  0.74096674  0.59607489  0.20282545    -0.02050
C704        C  0.75391453  0.61702440  0.19961683     0.07630
C705        C  0.77553676  0.61635085  0.18749451    -0.02160
C706        C  0.78455689  0.59471993  0.17922452    -0.02160
C707        C  0.77115093  0.57372437  0.18151332     0.07760
C708        C  0.74902681  0.57471967  0.19305214    -0.02360
Br709      Br  0.72846685  0.54756354  0.19431940    -0.00910
Br710      Br  0.71263829  0.59631999  0.22172185    -0.00980
Br711      Br  0.81604043  0.59424179  0.16631181    -0.00940
Br712      Br  0.79239226  0.64531267  0.18124495    -0.00920
C713        C  0.61176896  0.75375838  0.17588488    -0.02050
C714        C  0.61697384  0.75467946  0.20031799     0.07630
C715        C  0.60039614  0.76484033  0.21595997    -0.02160
C716        C  0.57923001  0.77436573  0.20719605    -0.02160
C717        C  0.57386522  0.77281292  0.18298324     0.07760
C718        C  0.59007206  0.76233573  0.16737535    -0.02360
Br719      Br  0.58214368  0.75887114  0.13438802    -0.00910
Br720      Br  0.63462702  0.74201292  0.15355045    -0.00980
Br721      Br  0.55791519  0.79045666  0.22832866    -0.00940
Br722      Br  0.60549554  0.76456333  0.24969141    -0.00920
C723        C  0.75999743  0.73902012  0.35350050    -0.02050
C724        C  0.75605724  0.75526266  0.33494885     0.07630
C725        C  0.76024464  0.77953039  0.33881865    -0.02160
C726        C  0.76804782  0.78747233  0.36104283    -0.02160
C727        C  0.77280513  0.77113373  0.37927454     0.07760
C728        C  0.76891102  0.74685712  0.37533569    -0.02360
Br729      Br  0.77695706  0.72396524  0.39933580    -0.00910
Br730      Br  0.75196598  0.70608924  0.34979924    -0.00980
Br731      Br  0.77105431  0.82096725  0.36667543    -0.00940
Br732      Br  0.75654448  0.80203558  0.31342951    -0.00920
C733        C  0.17759344  0.58084937  0.20514552    -0.02050
C734        C  0.18061506  0.57477712  0.18123382     0.07630
C735        C  0.19175103  0.59072560  0.16577777    -0.02160
C736        C  0.19921221  0.61294854  0.17398381    -0.02160
C737        C  0.19685750  0.61890608  0.19815120     0.07760
C738        C  0.18623934  0.60250885  0.21375308    -0.02360
Br739      Br  0.18470388  0.60852294  0.24728043    -0.00910
Br740      Br  0.16071290  0.55984196  0.22601131    -0.00980
Br741      Br  0.21131175  0.63546250  0.15138994    -0.00940
Br742      Br  0.19784850  0.58168666  0.13346968    -0.00920
C743        C  0.36226446  0.78543425  0.18805785    -0.02050
C744        C  0.37987070  0.76975565  0.18018515     0.07630
C745        C  0.37616268  0.74521430  0.18174792    -0.02160
C746        C  0.35539821  0.73634516  0.19195534    -0.02160
C747        C  0.33756536  0.75198229  0.19962711     0.07760
C748        C  0.34098845  0.77659797  0.19730646    -0.02360
Br749      Br  0.31624480  0.79845350  0.20563080    -0.00910
Br750      Br  0.36762970  0.81908826  0.18720451    -0.00980
Br751      Br  0.35245749  0.70268319  0.19664247    -0.00940
Br752      Br  0.39909383  0.72355249  0.16888922    -0.00920
C753        C  0.19897363  0.77855060  0.34042641    -0.02050
C754        C  0.19825656  0.75412691  0.33545211     0.07630
C755        C  0.18891223  0.73840674  0.35241894    -0.02160
C756        C  0.18021085  0.74707368  0.37401425    -0.02160
C757        C  0.18143608  0.77138839  0.37914061     0.07760
C758        C  0.19093355  0.78708149  0.36232193    -0.02360
Br759      Br  0.19393689  0.82024559  0.36960411    -0.00910
Br760      Br  0.20989573  0.80070168  0.31691214    -0.00980
Br761      Br  0.16568906  0.72563205  0.39617211    -0.00940
Br762      Br  0.18905898  0.70477269  0.34690155    -0.00920
C763        C  0.19613049  0.59639845  0.73689026    -0.02050
C764        C  0.19985463  0.61571053  0.75214593     0.07630
C765        C  0.19366235  0.61377835  0.77619359    -0.02160
C766        C  0.18429001  0.59249634  0.78501813    -0.02160
C767        C  0.18015626  0.57331138  0.76963153     0.07760
C768        C  0.18574566  0.57555496  0.74544099    -0.02360
Br769      Br  0.17804726  0.55067572  0.72342216    -0.00910
Br770      Br  0.20647783  0.59775484  0.70442170    -0.00840
Br771      Br  0.17835221  0.58948621  0.81845727    -0.00940
Br772      Br  0.19705871  0.64056642  0.79698465    -0.00920
C773        C  0.21417150  0.76821652  0.60282170    -0.02050
C774        C  0.19877818  0.75661322  0.61870622     0.07630
C775        C  0.17487843  0.75344152  0.61225400    -0.02160
C776        C  0.16674713  0.76111075  0.59003999    -0.02160
C777        C  0.18198825  0.77316460  0.57457234     0.07760
C778        C  0.20561691  0.77695637  0.58114427    -0.02360
Br779      Br  0.22613502  0.79499355  0.56079561    -0.00910
Br780      Br  0.24740241  0.77103583  0.60959174    -0.00980
Br781      Br  0.13487744  0.75406262  0.58034643    -0.00940
Br782      Br  0.15251889  0.73987555  0.63410138    -0.00920
C783        C  0.36249973  0.76029199  0.78795359    -0.02050
C784        C  0.37867521  0.77151356  0.77277347     0.07630
C785        C  0.37268549  0.77514415  0.74887088    -0.02160
C786        C  0.35103297  0.76682450  0.73998633    -0.02160
C787        C  0.33465971  0.75581002  0.75524708     0.07760
C788        C  0.34036427  0.75306835  0.77940778    -0.02360
Br789      Br  0.31754631  0.74058967  0.80142240    -0.00910
Br790      Br  0.37104561  0.75353324  0.82029637    -0.00980
Br791      Br  0.34481999  0.76940567  0.70654737    -0.00940
Br792      Br  0.39369060  0.79245032  0.72837897    -0.00920
C793        C  0.18575654  0.16738650  0.59228447    -0.02050
C794        C  0.18049969  0.18345732  0.57390423     0.07630
C795        C  0.18465907  0.20780084  0.57734602    -0.02160
C796        C  0.19450913  0.21588729  0.59865354    -0.02160
C797        C  0.19891842  0.19994742  0.61730940     0.07760
C798        C  0.19429553  0.17568703  0.61410635    -0.02360
Br799      Br  0.19848263  0.15377101  0.63993198    -0.00910
Br800      Br  0.18263809  0.13377440  0.58744752    -0.00980
Br801      Br  0.20316114  0.24875250  0.60153070    -0.00940
Br802      Br  0.17563158  0.23059933  0.55359339    -0.00920
C803        C  0.35692620  0.20185709  0.74124489    -0.02050
C804        C  0.33634498  0.19906776  0.75482313     0.07630
C805        C  0.33758602  0.18789973  0.77700051    -0.02160
C806        C  0.35939446  0.17997908  0.78583910    -0.02160
C807        C  0.38004106  0.18210472  0.77197381     0.07760
C808        C  0.37856685  0.19288104  0.74945648    -0.02360
Br809      Br  0.40559417  0.19419134  0.72880623    -0.00910
Br810      Br  0.35570094  0.21889613  0.71170293    -0.00980
Br811      Br  0.36069548  0.16753561  0.81758986    -0.00940
Br812      Br  0.30914339  0.18252098  0.79490602    -0.00920
C813        C  0.17514843  0.33880618  0.76087691    -0.02050
C814        C  0.19933086  0.33517281  0.75636705     0.07630
C815        C  0.21548033  0.35364849  0.76060229    -0.02160
C816        C  0.20767226  0.37517329  0.77019320    -0.02160
C817        C  0.18346546  0.37890598  0.77448697     0.07760
C818        C  0.16718975  0.36075394  0.76938815    -0.02360
Br819      Br  0.13376604  0.36613758  0.77280201    -0.00910
Br820      Br  0.15283146  0.31343945  0.75653568    -0.00980
Br821      Br  0.23058394  0.39895692  0.77858754    -0.00940
Br822      Br  0.24824280  0.35023361  0.75205211    -0.00920
C823        C  0.61524205  0.19442870  0.77879819    -0.02050
C824        C  0.61757579  0.19928459  0.75447491     0.07630
C825        C  0.59810029  0.19595565  0.73931691    -0.02160
C826        C  0.57656007  0.18759602  0.74838642    -0.02160
C827        C  0.57405176  0.18333574  0.77282607     0.07760
C828        C  0.59346767  0.18695240  0.78800541    -0.02360
Br829      Br  0.59015919  0.18286676  0.82170979    -0.00910
Br830      Br  0.64217472  0.19683376  0.79953493    -0.00980
Br831      Br  0.55096462  0.18087503  0.72693192    -0.00940
Br832      Br  0.60037339  0.20387679  0.70622076    -0.00920
C833        C  0.76185010  0.20376094  0.57544711    -0.02050
C834        C  0.77163471  0.18081842  0.57398101     0.07630
C835        C  0.77283442  0.16670405  0.59461182    -0.02160
C836        C  0.76499153  0.17568860  0.61640409    -0.02160
C837        C  0.75478686  0.19829807  0.61762528     0.07760
C838        C  0.75292198  0.21215938  0.59705071    -0.02360
Br839      Br  0.73717669  0.24236880  0.59821341    -0.00910
Br840      Br  0.76180760  0.22466047  0.54847145    -0.00980
Br841      Br  0.76910625  0.15732633  0.64486971    -0.00940
Br842      Br  0.78379713  0.13444230  0.59327844    -0.00920
C843        C  0.75183535  0.35693912  0.74121460    -0.02050
C844        C  0.75477232  0.33609595  0.75439691     0.07630
C845        C  0.76632378  0.33685217  0.77635366    -0.02160
C846        C  0.77447295  0.35850693  0.78544292    -0.02160
C847        C  0.77224180  0.37949780  0.77194939     0.07760
C848        C  0.76110365  0.37842648  0.74955351    -0.02360
Br849      Br  0.75965600  0.40570646  0.72910674    -0.00910
Br850      Br  0.73428355  0.35613796  0.71198313    -0.00980
Br851      Br  0.78717971  0.35904320  0.81709239    -0.00940
Br852      Br  0.77156716  0.30793220  0.79367016    -0.00920
C853        C  0.61031398  0.75048304  0.77633881    -0.02050
C854        C  0.61616423  0.75315474  0.75216735     0.07630
C855        C  0.60055051  0.76564355  0.73711097    -0.02160
C856        C  0.57971248  0.77551163  0.74620381    -0.02160
C857        C  0.57356809  0.77192801  0.76996606     0.07760
C858        C  0.58882307  0.75937102  0.78500884    -0.02360
Br859      Br  0.57986114  0.75377095  0.81741285    -0.00910
Br860      Br  0.63202510  0.73595537  0.79825184    -0.00980
Br861      Br  0.55977550  0.79469204  0.72625408    -0.00940
Br862      Br  0.60627325  0.76813020  0.70357843    -0.00920
C863        C  0.75257067  0.61269435  0.77879749    -0.02050
C864        C  0.75411349  0.61712627  0.75429959     0.07630
C865        C  0.76404906  0.59988041  0.73930333    -0.02160
C866        C  0.77219618  0.57836677  0.74873968    -0.02160
C867        C  0.77005088  0.57377156  0.77309118     0.07760
C868        C  0.76029348  0.59099229  0.78810089    -0.02360
Br869      Br  0.75673784  0.58454066  0.82139504    -0.00910
Br870      Br  0.74092513  0.63668711  0.79998970    -0.00980
Br871      Br  0.78708875  0.55549118  0.72838936    -0.00940
Br872      Br  0.76556974  0.60499188  0.70563116    -0.00920
C873        C  0.75464567  0.78044278  0.61411166    -0.02050
C874        C  0.75679647  0.75616517  0.61972979     0.07630
C875        C  0.76650153  0.74060068  0.60274984    -0.02160
C876        C  0.77447086  0.74935672  0.58086502    -0.02160
C877        C  0.77140674  0.77336053  0.57507405     0.07760
C878        C  0.76110168  0.78875797  0.59161561    -0.02360
Br879      Br  0.75459889  0.82115709  0.58308222    -0.00910
Br880      Br  0.74434654  0.80308265  0.63743690    -0.00980
Br881      Br  0.79061722  0.72855714  0.55924815    -0.00940
Br882      Br  0.76767550  0.70696506  0.60826456    -0.00920
loop_ 
_geom_bond_atom_site_label_1 
_geom_bond_atom_site_label_2 
_geom_bond_distance 
_geom_bond_site_symmetry_2 
_ccdc_geom_bond_type 
N1            N2   1.319       .  A
N1            C5   1.346       .  A
N1           Cu9   2.075       .  S
N2            C3   1.343       .  A
N2           Cu8   2.064       .  S
C3            C4   1.386       .  A
C3            H6   1.081       .  S
C4            C5   1.389       .  A
C4          C854   1.489       .  S
C5            H7   1.081       .  S
Cu8          N11   2.065       .  S
Cu9          N19   2.077       .  S
Cu10         N12   2.079       .  S
Cu10         N18   2.081       .  S
N11          N12   1.320       .  A
N11          C15   1.342       .  A
N12          C13   1.347       .  A
C13          C14   1.390       .  A
C13          H16   1.081       .  S
C14          C15   1.385       .  A
C14         C874   1.491       .  S
C15          H17   1.082       .  S
N18          N19   1.324       .  A
N18          C22   1.346       .  A
N19          C20   1.344       .  A
C20          C21   1.383       .  A
C20          H23   1.082       .  S
C21          C22   1.385       .  A
C21         C864   1.482       .  S
C22          H24   1.082       .  S
N25          N26   1.322       .  A
N25          C29   1.344       .  A
N25         Cu33   2.073       .  S
N26          C27   1.346       .  A
N26         Cu32   2.076       .  S
C27          C28   1.385       .  A
C27          H30   1.082       .  S
C28          C29   1.384       .  A
C28         C824   1.482       .  S
C29          H31   1.082       .  S
Cu32         N35   2.076       .  S
Cu33         N43   2.073       .  S
Cu34         N36   2.075       .  S
Cu34         N42   2.075       .  S
N35          N36   1.323       .  A
N35          C39   1.345       .  A
N36          C37   1.345       .  A
C37          C38   1.383       .  A
C37          H40   1.082       .  S
C38          C39   1.383       .  A
C38         C837   1.479       .  S
C39          H41   1.082       .  S
N42          N43   1.323       .  A
N42          C46   1.345       .  A
N43          C44   1.345       .  A
C44          C45   1.382       .  A
C44          H47   1.082       .  S
C45          C46   1.382       .  A
C45         C844   1.477       .  S
C46          H48   1.082       .  S
N49          N50   1.323       .  A
N49          C53   1.345       .  A
N49         Cu57   2.075       .  S
N50          C51   1.345       .  A
N50         Cu56   2.073       .  S
C51          C52   1.383       .  A
C51          H54   1.082       .  S
C52          C53   1.383       .  A
C52         C804   1.478       .  S
C53          H55   1.082       .  S
Cu56         N59   2.072       .  S
Cu57         N67   2.074       .  S
Cu58         N60   2.071       .  S
Cu58         N66   2.072       .  S
N59          N60   1.322       .  A
N59          C63   1.345       .  A
N60          C61   1.344       .  A
C61          C62   1.384       .  A
C61          H64   1.082       .  S
C62          C63   1.384       .  A
C62         C797   1.482       .  S
C63          H65   1.082       .  S
N66          N67   1.322       .  A
N66          C70   1.345       .  A
N67          C68   1.344       .  A
C68          C69   1.385       .  A
C68          H71   1.082       .  S
C69          C70   1.384       .  A
C69         C814   1.483       .  S
C70          H72   1.082       .  S
N73          N74   1.323       .  A
N73          C77   1.343       .  A
N73         Cu81   2.072       .  S
N74          C75   1.347       .  A
N74         Cu80   2.084       .  S
C75          C76   1.388       .  A
C75          H78   1.082       .  S
C76          C77   1.384       .  A
C76         C787   1.487       .  S
C77          H79   1.082       .  S
Cu80         N83   2.083       .  S
Cu81         N91   2.071       .  S
Cu82         N84   2.067       .  S
Cu82         N90   2.066       .  S
N83          N84   1.321       .  A
N83          C87   1.347       .  A
N84          C85   1.343       .  A
C85          C86   1.385       .  A
C85          H88   1.082       .  S
C86          C87   1.389       .  A
C86         C774   1.490       .  S
C87          H89   1.081       .  S
N90          N91   1.320       .  A
N90          C94   1.343       .  A
N91          C92   1.346       .  A
C92          C93   1.385       .  A
C92          H95   1.082       .  S
C93          C94   1.384       .  A
C93         C764   1.481       .  S
C94          H96   1.082       .  S
N97          N98   1.320       .  A
N97         C101   1.346       .  A
N97        Cu105   2.075       .  S
N98          C99   1.343       .  A
N98        Cu104   2.066       .  S
C99         C100   1.385       .  A
C99         H102   1.082       .  S
C100        C101   1.387       .  A
C100        C747   1.485       .  S
C101        H103   1.082       .  S
Cu104       N107   2.066       .  S
Cu105       N115   2.076       .  S
Cu106       N108   2.081       .  S
Cu106       N114   2.082       .  S
N107        N108   1.320       .  A
N107        C111   1.343       .  A
N108        C109   1.346       .  A
C109        C110   1.389       .  A
C109        H112   1.081       .  S
C110        C111   1.385       .  A
C110        C737   1.490       .  S
C111        H113   1.082       .  S
N114        N115   1.323       .  A
N114        C118   1.346       .  A
N115        C116   1.344       .  A
C116        C117   1.384       .  A
C116        H119   1.082       .  S
C117        C118   1.386       .  A
C117        C754   1.484       .  S
C118        H120   1.082       .  S
N121        N122   1.321       .  A
N121        C125   1.344       .  A
N121       Cu129   2.072       .  S
N122        C123   1.345       .  A
N122       Cu128   2.073       .  S
C123        C124   1.386       .  A
C123        H126   1.081       .  S
C124        C125   1.386       .  A
C124        C714   1.487       .  S
C125        H127   1.081       .  S
Cu128       N131   2.073       .  S
Cu129       N139   2.073       .  S
Cu130       N132   2.075       .  S
Cu130       N138   2.074       .  S
N131        N132   1.323       .  A
N131        C135   1.344       .  A
N132        C133   1.345       .  A
C133        C134   1.383       .  A
C133        H136   1.082       .  S
C134        C135   1.383       .  A
C134        C704   1.479       .  S
C135        H137   1.082       .  S
N138        N139   1.322       .  A
N138        C142   1.345       .  A
N139        C140   1.345       .  A
C140        C141   1.385       .  A
C140        H143   1.082       .  S
C141        C142   1.385       .  A
C141        C724   1.485       .  S
C142        H144   1.082       .  S
N145        N146   1.321       .  A
N145        C149   1.344       .  A
N145       Cu153   2.068       .  S
N146        C147   1.344       .  A
N146       Cu152   2.070       .  S
C147        C148   1.384       .  A
C147        H150   1.082       .  S
C148        C149   1.384       .  A
C148        C674   1.481       .  S
C149        H151   1.082       .  S
Cu152       N155   2.071       .  S
Cu153       N163   2.069       .  S
Cu154       N156   2.078       .  S
Cu154       N162   2.078       .  S
N155        N156   1.322       .  A
N155        C159   1.344       .  A
N156        C157   1.345       .  A
C157        C158   1.386       .  A
C157        H160   1.082       .  S
C158        C159   1.384       .  A
C158        C684   1.484       .  S
C159        H161   1.082       .  S
N162        N163   1.322       .  A
N162        C166   1.346       .  A
N163        C164   1.343       .  A
C164        C165   1.383       .  A
C164        H167   1.082       .  S
C165        C166   1.386       .  A
C165        C694   1.483       .  S
C166        H168   1.082       .  S
N169        N170   1.322       .  A
N169        C173   1.346       .  A
N169       Cu177   2.080       .  S
N170        C171   1.343       .  A
N170       Cu176   2.062       .  S
C171        C172   1.380       .  A
C171        H174   1.082       .  S
C172        C173   1.385       .  A
C172        C867   1.477       .  S
C173        H175   1.082       .  S
Cu176       N179   2.062       .  S
Cu177       N187   2.080       .  S
Cu178       N180   2.078       .  S
Cu178       N186   2.077       .  S
N179        N180   1.322       .  A
N179        C183   1.343       .  A
N180        C181   1.346       .  A
C181        C182   1.385       .  A
C181        H184   1.082       .  S
C182        C183   1.380       .  A
C182        C664   1.477       .  S
C183        H185   1.082       .  S
N186        N187   1.322       .  A
N186        C190   1.345       .  A
N187        C188   1.345       .  A
C188        C189   1.388       .  A
C188        H191   1.081       .  S
C189        C190   1.388       .  A
C189        C847   1.492       .  S
C190        H192   1.081       .  S
N193        N194   1.321       .  A
N193        C197   1.343       .  A
N193       Cu201   2.068       .  S
N194        C195   1.346       .  A
N194       Cu200   2.073       .  S
C195        C196   1.386       .  A
C195        H198   1.082       .  S
C196        C197   1.384       .  A
C196        C767   1.483       .  S
C197        H199   1.082       .  S
Cu200       N203   2.073       .  S
Cu201       N211   2.068       .  S
Cu202       N204   2.073       .  S
Cu202       N210   2.072       .  S
N203        N204   1.322       .  A
N203        C207   1.344       .  A
N204        C205   1.344       .  A
C205        C206   1.385       .  A
C205        H208   1.082       .  S
C206        C207   1.385       .  A
C206        C654   1.485       .  S
C207        H209   1.082       .  S
N210        N211   1.321       .  A
N210        C214   1.345       .  A
N211        C212   1.344       .  A
C212        C213   1.384       .  A
C212        H215   1.082       .  S
C213        C214   1.385       .  A
C213        C817   1.483       .  S
C214        H216   1.082       .  S
N217        N218   1.321       .  A
N217        C221   1.344       .  A
N217       Cu225   2.074       .  S
N218        C219   1.345       .  A
N218       Cu224   2.076       .  S
C219        C220   1.388       .  A
C219        H222   1.081       .  S
C220        C221   1.388       .  A
C220        C707   1.492       .  S
C221        H223   1.081       .  S
Cu224       N227   2.077       .  S
Cu225       N235   2.075       .  S
Cu226       N228   2.067       .  S
Cu226       N234   2.066       .  S
N227        N228   1.323       .  A
N227        C231   1.346       .  A
N228        C229   1.343       .  A
C229        C230   1.380       .  A
C229        H232   1.082       .  S
C230        C231   1.383       .  A
C230        C644   1.475       .  S
C231        H233   1.082       .  S
N234        N235   1.321       .  A
N234        C238   1.344       .  A
N235        C236   1.345       .  A
C236        C237   1.386       .  A
C236        H239   1.082       .  S
C237        C238   1.384       .  A
C237        C687   1.483       .  S
C238        H240   1.082       .  S
N241        N242   1.323       .  A
N241        C245   1.346       .  A
N241       Cu249   2.079       .  S
N242        C243   1.344       .  A
N242       Cu248   2.074       .  S
C243        C244   1.382       .  A
C243        H246   1.082       .  S
C244        C245   1.384       .  A
C244        C734   1.479       .  S
C245        H247   1.082       .  S
Cu248       N251   2.073       .  S
Cu249       N259   2.078       .  S
Cu250       N252   2.063       .  S
Cu250       N258   2.064       .  S
N251        N252   1.322       .  A
N251        C255   1.345       .  A
N252        C253   1.344       .  A
C253        C254   1.381       .  A
C253        H256   1.082       .  S
C254        C255   1.384       .  A
C254        C634   1.476       .  S
C255        H257   1.082       .  S
N258        N259   1.322       .  A
N258        C262   1.343       .  A
N259        C260   1.346       .  A
C260        C261   1.385       .  A
C260        H263   1.082       .  S
C261        C262   1.381       .  A
C261        C624   1.479       .  S
C262        H264   1.082       .  S
O265       Cu273   2.015       .  S
O265        C275   1.278       .  A
O266       Cu273   2.004   1_454  S
O266        C276   1.276       .  A
O267       Cu273   2.008   1_554  S
O267        C277   1.278       .  A
O268       Cu273   2.006   1_455  S
O268        C278   1.276       .  A
O269       Cu274   2.009   1_455  S
O269        C278   1.277       .  A
O270       Cu274   2.009   1_554  S
O270        C277   1.278       .  A
O271       Cu274   2.014   1_454  S
O271        C276   1.278       .  A
O272       Cu274   2.006       .  S
O272        C275   1.276       .  A
Cu273      Cu274   2.368       .  S
C275        C667   1.474       .  S
C276        C637   1.475       .  S
C277        C647   1.480       .  S
C278        C657   1.501       .  S
N279        N280   1.322       .  A
N279        C283   1.346       .  A
N279       Cu287   2.078       .  S
N280        C281   1.344       .  A
N280       Cu286   2.070       .  S
C281        C282   1.383       .  A
C281        H284   1.082       .  S
C282        C283   1.385       .  A
C282        C784   1.481       .  S
C283        H285   1.082       .  S
Cu286       N289   2.069       .  S
Cu287       N297   2.078       .  S
Cu288       N290   2.069       .  S
Cu288       N296   2.069       .  S
N289        N290   1.321       .  A
N289        C293   1.344       .  A
N290        C291   1.343       .  A
C291        C292   1.385       .  A
C291        H294   1.082       .  S
C292        C293   1.385       .  A
C292        C617   1.484       .  S
C293        H295   1.082       .  S
N296        N297   1.323       .  A
N296        C300   1.345       .  A
N297        C298   1.345       .  A
C298        C299   1.383       .  A
C298        H301   1.082       .  S
C299        C300   1.381       .  A
C299        C857   1.475       .  S
C300        H302   1.082       .  S
N303        N304   1.322       .  A
N303        C307   1.346       .  A
N303       Cu311   2.083       .  S
N304        C305   1.343       .  A
N304       Cu310   2.070       .  S
C305        C306   1.385       .  A
C305        H308   1.082       .  S
C306        C307   1.388       .  A
C306        C807   1.489       .  S
C307        H309   1.082       .  S
Cu310       N313   2.070       .  S
Cu311       N321   2.083       .  S
Cu312       N314   2.066       .  S
Cu312       N320   2.067       .  S
N313        N314   1.321       .  A
N313        C317   1.345       .  A
N314        C315   1.344       .  A
C315        C316   1.382       .  A
C315        H318   1.082       .  S
C316        C317   1.383       .  A
C316        C604   1.477       .  S
C317        H319   1.082       .  S
N320        N321   1.322       .  A
N320        C324   1.343       .  A
N321        C322   1.347       .  A
C322        C323   1.387       .  A
C322        H325   1.082       .  S
C323        C324   1.383       .  A
C323        C827   1.483       .  S
C324        H326   1.082       .  S
N327        N328   1.322       .  A
N327        C331   1.344       .  A
N327       Cu335   2.073       .  S
N328        C329   1.346       .  A
N328       Cu334   2.072       .  S
C329        C330   1.383       .  A
C329        H332   1.082       .  S
C330        C331   1.383       .  A
C330        C744   1.479       .  S
C331        H333   1.082       .  S
Cu334       N337   2.072       .  S
Cu335       N345   2.072       .  S
Cu336       N338   2.069       .  S
Cu336       N344   2.069       .  S
N337        N338   1.322       .  A
N337        C341   1.344       .  A
N338        C339   1.343       .  A
C339        C340   1.384       .  A
C339        H342   1.082       .  S
C340        C341   1.385       .  A
C340        C597   1.483       .  S
C341        H343   1.082       .  S
N344        N345   1.322       .  A
N344        C348   1.345       .  A
N345        C346   1.345       .  A
C346        C347   1.383       .  A
C346        H349   1.082       .  S
C347        C348   1.382       .  A
C347        C717   1.477       .  S
C348        H350   1.082       .  S
N351        N352   1.322       .  A
N351        C355   1.345       .  A
N351       Cu359   2.074       .  S
N352        C353   1.344       .  A
N352       Cu358   2.066       .  S
C353        C354   1.383       .  A
C353        H356   1.082       .  S
C354        C355   1.385       .  A
C354        C577   1.481       .  S
C355        H357   1.082       .  S
Cu358       N361   2.065       .  S
Cu359       N369   2.074       .  S
Cu360       N362   2.069       .  S
Cu360       N368   2.070       .  S
N361        N362   1.321       .  A
N361        C365   1.342       .  A
N362        C363   1.344       .  A
C363        C364   1.386       .  A
C363        H366   1.082       .  S
C364        C365   1.384       .  A
C364        C587   1.483       .  S
C365        H367   1.082       .  S
N368        N369   1.322       .  A
N368        C372   1.344       .  A
N369        C370   1.344       .  A
C370        C371   1.385       .  A
C370        H373   1.082       .  S
C371        C372   1.384       .  A
C371        C677   1.484       .  S
C372        H374   1.082       .  S
O375       Cu383   2.004   1_554  S
O375        C385   1.277       .  A
O376       Cu383   2.024   1_545  S
O376        C386   1.279       .  A
O377       Cu383   2.002       .  S
O377        C387   1.277       .  A
O378       Cu383   2.011   1_544  S
O378        C388   1.277       .  A
O379       Cu384   2.004   1_544  S
O379        C388   1.277       .  A
O380       Cu384   2.014       .  S
O380        C387   1.278       .  A
O381       Cu384   1.999   1_545  S
O381        C386   1.276       .  A
O382       Cu384   2.013   1_554  S
O382        C385   1.277       .  A
Cu383      Cu384   2.365       .  S
C385        C594   1.491       .  S
C386        C607   1.479       .  S
C387        C614   1.492       .  S
C388        C584   1.489       .  S
N389        N390   1.319       .  A
N389        C393   1.344       .  A
N389       Cu397   2.070       .  S
N390        C391   1.344       .  A
N390       Cu396   2.067       .  S
C391        C392   1.387       .  A
C391        H394   1.081       .  S
C392        C393   1.388       .  A
C392        C574   1.489       .  S
C393        H395   1.081       .  S
Cu396       N399   2.068       .  S
Cu397       N407   2.072       .  S
Cu398       N400   2.074       .  S
Cu398       N406   2.076       .  S
N399        N400   1.321       .  A
N399        C403   1.343       .  A
N400        C401   1.345       .  A
C401        C402   1.388       .  A
C401        H404   1.081       .  S
C402        C403   1.386       .  A
C402        C627   1.489       .  S
C403        H405   1.082       .  S
N406        N407   1.323       .  A
N406        C410   1.345       .  A
N407        C408   1.343       .  A
C408        C409   1.383       .  A
C408        H411   1.082       .  S
C409        C410   1.385       .  A
C409        C564   1.482       .  S
C410        H412   1.082       .  S
N413        N414   1.322       .  A
N413        C417   1.346       .  A
N413       Cu421   2.079       .  S
N414        C415   1.343       .  A
N414       Cu420   2.068       .  S
C415        C416   1.382       .  A
C415        H418   1.082       .  S
C416        C417   1.385       .  A
C416        C877   1.481       .  S
C417        H419   1.082       .  S
Cu420       N423   2.067       .  S
Cu421       N431   2.079       .  S
Cu422       N424   2.071       .  S
Cu422       N430   2.072       .  S
N423        N424   1.321       .  A
N423        C427   1.344       .  A
N424        C425   1.344       .  A
C425        C426   1.385       .  A
C425        H428   1.082       .  S
C426        C427   1.384       .  A
C426        C554   1.483       .  S
C427        H429   1.082       .  S
N430        N431   1.323       .  A
N430        C434   1.344       .  A
N431        C432   1.346       .  A
C432        C433   1.385       .  A
C432        H435   1.082       .  S
C433        C434   1.383       .  A
C433        C727   1.483       .  S
C434        H436   1.082       .  S
N437        N438   1.323       .  A
N437        C441   1.346       .  A
N437       Cu445   2.080       .  S
N438        C439   1.345       .  A
N438       Cu444   2.074       .  S
C439        C440   1.382       .  A
C439        H442   1.082       .  S
C440        C441   1.384       .  A
C440        C777   1.480       .  S
C441        H443   1.082       .  S
Cu444       N447   2.074       .  S
Cu445       N455   2.080       .  S
Cu446       N448   2.069       .  S
Cu446       N454   2.070       .  S
N447        N448   1.322       .  A
N447        C451   1.346       .  A
N448        C449   1.344       .  A
C449        C450   1.380       .  A
C449        H452   1.082       .  S
C450        C451   1.382       .  A
C450        C544   1.472       .  S
C451        H453   1.082       .  S
N454        N455   1.323       .  A
N454        C458   1.344       .  A
N455        C456   1.346       .  A
C456        C457   1.385       .  A
C456        H459   1.082       .  S
C457        C458   1.382       .  A
C457        C757   1.480       .  S
C458        H460   1.082       .  S
N461        N462   1.321       .  A
N461        C465   1.345       .  A
N461       Cu469   2.080       .  S
N462        C463   1.344       .  A
N462       Cu468   2.071       .  S
C463        C464   1.385       .  A
C463        H466   1.082       .  S
C464        C465   1.388       .  A
C464        C834   1.489       .  S
C465        H467   1.082       .  S
Cu468       N471   2.071       .  S
Cu469       N479   2.080       .  S
Cu470       N472   2.069       .  S
Cu470       N478   2.069       .  S
N471        N472   1.322       .  A
N471        C475   1.345       .  A
N472        C473   1.345       .  A
C473        C474   1.381       .  A
C473        H476   1.082       .  S
C474        C475   1.381       .  A
C474        C537   1.473       .  S
C475        H477   1.082       .  S
N478        N479   1.322       .  A
N478        C482   1.343       .  A
N479        C480   1.346       .  A
C480        C481   1.386       .  A
C480        H483   1.082       .  S
C481        C482   1.383       .  A
C481        C697   1.482       .  S
C482        H484   1.082       .  S
N485        N486   1.320       .  A
N485        C489   1.344       .  A
N485       Cu493   2.070       .  S
N486        C487   1.344       .  A
N486       Cu492   2.068       .  S
C487        C488   1.385       .  A
C487        H490   1.082       .  S
C488        C489   1.386       .  A
C488        C794   1.484       .  S
C489        H491   1.082       .  S
Cu492       N495   2.069       .  S
Cu493       N503   2.070       .  S
Cu494       N496   2.076       .  S
Cu494       N502   2.075       .  S
N495        N496   1.323       .  A
N495        C499   1.343       .  A
N496        C497   1.345       .  A
C497        C498   1.384       .  A
C497        H500   1.082       .  S
C498        C499   1.382       .  A
C498        C527   1.479       .  S
C499        H501   1.082       .  S
N502        N503   1.321       .  A
N502        C506   1.345       .  A
N503        C504   1.343       .  A
C504        C505   1.386       .  A
C504        H507   1.081       .  S
C505        C506   1.388       .  A
C505        C567   1.489       .  S
C506        H508   1.081       .  S
O509       Cu517   2.008       .  S
O509        C519   1.277       .  A
O510       Cu517   2.007   1_445  S
O510        C520   1.277       .  A
O511       Cu517   2.003   1_545  S
O511        C521   1.275       .  A
O512       Cu517   2.020   1_455  S
O512        C522   1.279       .  A
O513       Cu518   2.005   1_455  S
O513        C522   1.276       .  A
O514       Cu518   2.020   1_545  S
O514        C521   1.279       .  A
O515       Cu518   2.008   1_445  S
O515        C520   1.277       .  A
O516       Cu518   2.006       .  S
O516        C519   1.277       .  A
Cu517      Cu518   2.370       .  S
C519        C557   1.493       .  S
C520        C524   1.491       .  S
C521        C534   1.473       .  S
C522        C547   1.473       .  S
C523        C524   1.420       .  A
C523        C528   1.408       .  A
C523       Br530   1.936       .  S
C524        C525   1.420       .  A
C525        C526   1.409       .  A
C525       Br532   1.936       .  S
C526        C527   1.408       .  A
C526       Br531   1.934       .  S
C527        C528   1.409       .  A
C528       Br529   1.935       .  S
C533        C534   1.408       .  A
C533        C538   1.407       .  A
C533       Br540   1.926   1_545  S
C534        C535   1.408       .  A
C535        C536   1.406       .  A
C535       Br542   1.927       .  S
C536        C537   1.408       .  A
C536       Br541   1.930       .  S
C537        C538   1.409       .  A
C538       Br539   1.930       .  S
C543        C544   1.408       .  A
C543        C548   1.407       .  A
C543       Br550   1.930       .  S
C544        C545   1.408       .  A
C545        C546   1.407       .  A
C545       Br552   1.929       .  S
C546        C547   1.409       .  A
C546       Br551   1.927   1_455  S
C547        C548   1.408       .  A
C548       Br549   1.925       .  S
C553        C554   1.410       .  A
C553        C558   1.409       .  A
C553       Br560   1.935       .  S
C554        C555   1.410       .  A
C555        C556   1.409       .  A
C555       Br562   1.935       .  S
C556        C557   1.420       .  A
C556       Br561   1.937       .  S
C557        C558   1.420       .  A
C558       Br559   1.937       .  S
C563        C564   1.411       .  A
C563        C568   1.409       .  A
C563       Br570   1.933       .  S
C564        C565   1.411       .  A
C565        C566   1.407       .  A
C565       Br572   1.934       .  S
C566        C567   1.416       .  A
C566       Br571   1.934       .  S
C567        C568   1.416       .  A
C568       Br569   1.933       .  S
C573        C574   1.416       .  A
C573        C578   1.408       .  A
C573       Br580   1.933       .  S
C574        C575   1.417       .  A
C575        C576   1.408       .  A
C575       Br582   1.933       .  S
C576        C577   1.410       .  A
C576       Br581   1.934       .  S
C577        C578   1.410       .  A
C578       Br579   1.933       .  S
C583        C584   1.416       .  A
C583        C588   1.407       .  A
C583       Br590   1.930       .  S
C584        C585   1.417       .  A
C585        C586   1.408       .  A
C585       Br592   1.936   1_545  S
C586        C587   1.412       .  A
C586       Br591   1.934       .  S
C587        C588   1.412       .  A
C588       Br589   1.935       .  S
C593        C594   1.418       .  A
C593        C598   1.409       .  A
C593       Br600   1.936       .  S
C594        C595   1.417       .  A
C595        C596   1.408       .  A
C595       Br602   1.930       .  S
C596        C597   1.411       .  A
C596       Br601   1.936       .  S
C597        C598   1.412       .  A
C598       Br599   1.934       .  S
C603        C604   1.409       .  A
C603        C608   1.407       .  A
C603       Br610   1.931       .  S
C604        C605   1.410       .  A
C605        C606   1.407       .  A
C605       Br612   1.932       .  S
C606        C607   1.410       .  A
C606       Br611   1.921       .  S
C607        C608   1.412       .  A
C608       Br609   1.932   1_545  S
C613        C614   1.418       .  A
C613        C618   1.408       .  A
C613       Br620   1.930       .  S
C614        C615   1.419       .  A
C615        C616   1.409       .  A
C615       Br622   1.937       .  S
C616        C617   1.411       .  A
C616       Br621   1.935       .  S
C617        C618   1.411       .  A
C618       Br619   1.936       .  S
C623        C624   1.409       .  A
C623        C628   1.407       .  A
C623       Br630   1.933       .  S
C624        C625   1.409       .  A
C625        C626   1.408       .  A
C625       Br632   1.933       .  S
C626        C627   1.417       .  A
C626       Br631   1.932       .  S
C627        C628   1.416       .  A
C628       Br629   1.933       .  S
C633        C634   1.409       .  A
C633        C638   1.406       .  A
C633       Br640   1.932       .  S
C634        C635   1.411       .  A
C635        C636   1.408       .  A
C635       Br642   1.930       .  S
C636        C637   1.410       .  A
C636       Br641   1.930   1_455  S
C637        C638   1.409       .  A
C638       Br639   1.926   1_554  S
C643        C644   1.408       .  A
C643        C648   1.408       .  A
C643       Br650   1.931       .  S
C644        C645   1.408       .  A
C645        C646   1.407       .  A
C645       Br652   1.932       .  S
C646        C647   1.413       .  A
C646       Br651   1.932   1_554  S
C647        C648   1.414       .  A
C648       Br649   1.932       .  S
C653        C654   1.409       .  A
C653        C658   1.409       .  A
C653       Br660   1.937       .  S
C654        C655   1.409       .  A
C655        C656   1.409       .  A
C655       Br662   1.937       .  S
C656        C657   1.425       .  A
C656       Br661   1.939       .  S
C657        C658   1.425       .  A
C658       Br659   1.938       .  S
C663        C664   1.412       .  A
C663        C668   1.408       .  A
C663       Br670   1.931       .  S
C664        C665   1.409       .  A
C665        C666   1.406       .  A
C665       Br672   1.932       .  S
C666        C667   1.408       .  A
C666       Br671   1.925       .  S
C667        C668   1.409       .  A
C668       Br669   1.929       .  S
C673        C674   1.412       .  A
C673        C678   1.408       .  A
C673       Br680   1.933       .  S
C674        C675   1.411       .  A
C675        C676   1.408       .  A
C675       Br682   1.933       .  S
C676        C677   1.413       .  A
C676       Br681   1.933       .  S
C677        C678   1.414       .  A
C678       Br679   1.933       .  S
C683        C684   1.413       .  A
C683        C688   1.408       .  A
C683       Br690   1.933       .  S
C684        C685   1.413       .  A
C685        C686   1.408       .  A
C685       Br692   1.933       .  S
C686        C687   1.412       .  A
C686       Br691   1.933       .  S
C687        C688   1.413       .  A
C688       Br689   1.933       .  S
C693        C694   1.412       .  A
C693        C698   1.407       .  A
C693       Br700   1.933       .  S
C694        C695   1.413       .  A
C695        C696   1.409       .  A
C695       Br702   1.932       .  S
C696        C697   1.412       .  A
C696       Br701   1.932       .  S
C697        C698   1.411       .  A
C698       Br699   1.933       .  S
C703        C704   1.408       .  A
C703        C708   1.408       .  A
C703       Br710   1.933       .  S
C704        C705   1.408       .  A
C705        C706   1.409       .  A
C705       Br712   1.933       .  S
C706        C707   1.418       .  A
C706       Br711   1.933       .  S
C707        C708   1.418       .  A
C708       Br709   1.933       .  S
C713        C714   1.416       .  A
C713        C718   1.409       .  A
C713       Br720   1.932       .  S
C714        C715   1.416       .  A
C715        C716   1.407       .  A
C715       Br722   1.932       .  S
C716        C717   1.408       .  A
C716       Br721   1.932       .  S
C717        C718   1.409       .  A
C718       Br719   1.932       .  S
C723        C724   1.414       .  A
C723        C728   1.408       .  A
C723       Br730   1.933       .  S
C724        C725   1.413       .  A
C725        C726   1.408       .  A
C725       Br732   1.932       .  S
C726        C727   1.412       .  A
C726       Br731   1.932       .  S
C727        C728   1.411       .  A
C728       Br729   1.932       .  S
C733        C734   1.409       .  A
C733        C738   1.409       .  A
C733       Br740   1.932       .  S
C734        C735   1.408       .  A
C735        C736   1.408       .  A
C735       Br742   1.933       .  S
C736        C737   1.417       .  A
C736       Br741   1.933       .  S
C737        C738   1.417       .  A
C738       Br739   1.932       .  S
C743        C744   1.410       .  A
C743        C748   1.409       .  A
C743       Br750   1.932       .  S
C744        C745   1.409       .  A
C745        C746   1.407       .  A
C745       Br752   1.933       .  S
C746        C747   1.415       .  A
C746       Br751   1.933       .  S
C747        C748   1.414       .  A
C748       Br749   1.932       .  S
C753        C754   1.413       .  A
C753        C758   1.408       .  A
C753       Br760   1.932       .  S
C754        C755   1.414       .  A
C755        C756   1.409       .  A
C755       Br762   1.932       .  S
C756        C757   1.410       .  A
C756       Br761   1.932       .  S
C757        C758   1.410       .  A
C758       Br759   1.932       .  S
C763        C764   1.411       .  A
C763        C768   1.406       .  A
C763       Br770   1.933       .  S
C764        C765   1.411       .  A
C765        C766   1.410       .  A
C765       Br772   1.932       .  S
C766        C767   1.414       .  A
C766       Br771   1.932       .  S
C767        C768   1.413       .  A
C768       Br769   1.933       .  S
C773        C774   1.417       .  A
C773        C778   1.409       .  A
C773       Br780   1.932       .  S
C774        C775   1.417       .  A
C775        C776   1.408       .  A
C775       Br782   1.933       .  S
C776        C777   1.409       .  A
C776       Br781   1.933       .  S
C777        C778   1.409       .  A
C778       Br779   1.932       .  S
C783        C784   1.410       .  A
C783        C788   1.408       .  A
C783       Br790   1.933       .  S
C784        C785   1.411       .  A
C785        C786   1.410       .  A
C785       Br792   1.932       .  S
C786        C787   1.415       .  A
C786       Br791   1.932       .  S
C787        C788   1.415       .  A
C788       Br789   1.933       .  S
C793        C794   1.414       .  A
C793        C798   1.409       .  A
C793       Br800   1.933       .  S
C794        C795   1.413       .  A
C795        C796   1.407       .  A
C795       Br802   1.933       .  S
C796        C797   1.412       .  A
C796       Br801   1.933       .  S
C797        C798   1.411       .  A
C798       Br799   1.932       .  S
C803        C804   1.409       .  A
C803        C808   1.408       .  A
C803       Br810   1.932       .  S
C804        C805   1.408       .  A
C805        C806   1.408       .  A
C805       Br812   1.932       .  S
C806        C807   1.417       .  A
C806       Br811   1.933       .  S
C807        C808   1.416       .  A
C808       Br809   1.932       .  S
C813        C814   1.412       .  A
C813        C818   1.409       .  A
C813       Br820   1.932       .  S
C814        C815   1.412       .  A
C815        C816   1.407       .  A
C815       Br822   1.933       .  S
C816        C817   1.412       .  A
C816       Br821   1.933       .  S
C817        C818   1.413       .  A
C818       Br819   1.932       .  S
C823        C824   1.411       .  A
C823        C828   1.408       .  A
C823       Br830   1.932       .  S
C824        C825   1.412       .  A
C825        C826   1.409       .  A
C825       Br832   1.932       .  S
C826        C827   1.412       .  A
C826       Br831   1.932       .  S
C827        C828   1.413       .  A
C828       Br829   1.932       .  S
C833        C834   1.416       .  A
C833        C838   1.408       .  A
C833       Br840   1.932       .  S
C834        C835   1.417       .  A
C835        C836   1.409       .  A
C835       Br842   1.933       .  S
C836        C837   1.408       .  A
C836       Br841   1.932       .  S
C837        C838   1.409       .  A
C838       Br839   1.932       .  S
C843        C844   1.406       .  A
C843        C848   1.408       .  A
C843       Br850   1.932       .  S
C844        C845   1.406       .  A
C845        C846   1.409       .  A
C845       Br852   1.932       .  S
C846        C847   1.419       .  A
C846       Br851   1.932       .  S
C847        C848   1.418       .  A
C848       Br849   1.932       .  S
C853        C854   1.417       .  A
C853        C858   1.409       .  A
C853       Br860   1.932       .  S
C854        C855   1.418       .  A
C855        C856   1.407       .  A
C855       Br862   1.933       .  S
C856        C857   1.406       .  A
C856       Br861   1.932       .  S
C857        C858   1.407       .  A
C858       Br859   1.931       .  S
C863        C864   1.413       .  A
C863        C868   1.407       .  A
C863       Br870   1.932       .  S
C864        C865   1.413       .  A
C865        C866   1.408       .  A
C865       Br872   1.931       .  S
C866        C867   1.409       .  A
C866       Br871   1.931       .  S
C867        C868   1.409       .  A
C868       Br869   1.932       .  S
C873        C874   1.417       .  A
C873        C878   1.407       .  A
C873       Br880   1.934       .  S
C874        C875   1.418       .  A
C875        C876   1.410       .  A
C875       Br882   1.932       .  S
C876        C877   1.409       .  A
C876       Br881   1.932       .  S
C877        C878   1.409       .  A
C878       Br879   1.933       .  S
