geometry optimzed in LAMMPS
_audit_creation_date              2020-11-30 
_audit_creation_method            'lammps2cif' 
_symmetry_space_group_name_H-M    'P1' 
_symmetry_Int_Tables_number       1 
_symmetry_cell_setting            triclinic 
loop_ 
_symmetry_equiv_pos_as_xyz 
  x,y,z 
_cell_length_a                    35.80574969001724 
_cell_length_b                    36.45336626266784 
_cell_length_c                    28.04507704361868 
_cell_angle_alpha                 102.1149565870435 
_cell_angle_beta                  77.43220664076301 
_cell_angle_gamma                 111.63656489703408 
loop_ 
_atom_site_label 
_atom_site_type_symbol 
_atom_site_fract_x 
_atom_site_fract_y 
_atom_site_fract_z 
_atom_site_charge 
C1          C  0.30783324  0.14242121  0.97925324     0.03520
C2          C  0.32506122  0.18407954  0.98500783    -0.12630
C3          C  0.36577381  0.20286777  0.99220112     0.01020
C4          C  0.38883037  0.17964537  0.99486845    -0.11160
C5          C  0.37240183  0.13766766  0.98669043     0.03510
C6          C  0.33157248  0.11942046  0.97958153    -0.10580
H7          H  0.30747052  0.20173589  0.98135525     0.09110
H8          H  0.42043190  0.19428090  0.99959472     0.06640
H9          H  0.31851496  0.08721245  0.97236601     0.06480
C10         C  0.31414047  0.14180991  0.22389214     0.03520
C11         C  0.32802172  0.18344153  0.23689742    -0.12630
C12         C  0.36769441  0.20428205  0.24696055     0.01020
C13         C  0.39019558  0.18257276  0.25572918    -0.11160
C14         C  0.37788964  0.14088144  0.24293837     0.03510
C15         C  0.34055450  0.12130731  0.22448213    -0.10580
H16         H  0.30844468  0.19998676  0.23752822     0.09110
H17         H  0.41754294  0.19878209  0.27139379     0.06640
H18         H  0.33197397  0.08984614  0.21045776     0.06480
C19         C  0.21989357  0.33564860  0.37506295     0.03520
C20         C  0.20118774  0.35677606  0.35734222    -0.12630
C21         C  0.15893033  0.34276382  0.35816537     0.01020
C22         C  0.13603170  0.30432429  0.36986660    -0.11160
C23         C  0.15504728  0.28151279  0.38329337     0.03510
C24         C  0.19605123  0.29823251  0.38905828    -0.10580
H25         H  0.21900569  0.38554946  0.34571951     0.09110
H26         H  0.10351133  0.29245769  0.36975374     0.06640
H27         H  0.20909022  0.28160608  0.40430022     0.06480
C28         C  0.22597337  0.33185135  0.09008985     0.03520
C29         C  0.20053986  0.35389190  0.09243419    -0.12630
C30         C  0.15881795  0.33492727  0.08917636     0.01020
C31         C  0.14334920  0.29275832  0.08284329    -0.11160
C32         C  0.16782800  0.27063664  0.08465270     0.03510
C33         C  0.20933575  0.29026439  0.08697482    -0.10580
H34         H  0.21331846  0.38610196  0.09921077     0.09110
H35         H  0.11181882  0.27679167  0.07902614     0.06640
H36         H  0.22806072  0.27348378  0.08981959     0.06480
C37         C  0.14323096  0.06717184  0.43790176     0.76840
Tb38       Tb  0.46750630  0.44141341  0.42268801     1.80740
O39         O  0.13216297  0.05394806  0.39614222    -0.51180
O40         O  0.06660815  0.08617651  0.37546513    -0.58630
C41         C  0.06594709  0.44642072  0.38470787     0.92660
O42         O  0.45203799  0.37230531  0.40467518    -0.58150
Tb43       Tb  0.06156183  0.03824072  0.42353224     1.78060
O44         O  0.39873971  0.43644387  0.44421829    -0.58650
O45         O  0.00190778  0.04559938  0.47125313    -0.77460
O46         O  0.08174019  0.48386719  0.38535362    -0.76780
O47         O  0.04530108  0.01174077  0.99725016    -0.62040
C48         C  0.46779607  0.03432693  0.45675920     0.92250
O49         O  0.99236659  0.45684023  0.34205666    -0.73990
C50         C  0.38677195  0.41116814  0.40763317     0.75690
C51         C  0.08081694  0.11618255  0.40624164     0.76670
O52         O  0.11363077  0.06512555  0.47221688    -0.59240
O53         O  0.08163562  0.10750642  0.44693527    -0.51180
O54         O  0.48281572  0.46614381  0.50265745    -0.77250
O55         O  0.03869914  0.01836457  0.34677409    -0.61250
C56         C  0.01564313  0.48780703  0.32294824     0.90470
C57         C  0.01452387  0.98849136  0.02107720     0.91690
C58         C  0.44381577  0.36455759  0.44826123     0.76040
O59         O  0.41485222  0.40189508  0.37803965    -0.50570
O60         O  0.44840851  0.39558428  0.47994317    -0.51730
O61         O  0.45391194  0.50091370  0.43046471    -0.64580
O62         O  0.02837279  0.42849132  0.39739497    -0.65710
C63         C  0.14603448  0.06240558  0.19376035     0.76840
Tb64       Tb  0.46544493  0.44010746  0.17168399     1.80740
O65         O  0.13430330  0.03452478  0.15947955    -0.51180
O66         O  0.09864764  0.07949733  0.11058088    -0.58630
C67         C  0.06099216  0.43876664  0.13174763     0.92660
O68         O  0.46667885  0.37718326  0.17695096    -0.58150
Tb69       Tb  0.06720013  0.03513993  0.17043422     1.78060
O70         O  0.39998264  0.44099745  0.17001044    -0.58650
O71         O  0.00847306  0.05032121  0.20588344    -0.77460
O72         O  0.07888361  0.47410233  0.15125893    -0.76780
O73         O  0.04306522  0.01724948  0.24989852    -0.62040
C74         C  0.47005682  0.03515236  0.21599566     0.92250
O75         O  0.98592423  0.46222654  0.09522181    -0.73990
C76         C  0.38848175  0.40947044  0.14029139     0.75690
C77         C  0.09698321  0.11094058  0.13895769     0.76670
O78         O  0.11842124  0.07548127  0.21771082    -0.59240
O79         O  0.07884834  0.10403039  0.18162817    -0.51180
O80         O  0.98935865  0.46055567  0.24800446    -0.77250
O81         O  0.04541595  0.01292285  0.09295061    -0.61250
C82         C  0.01541047  0.48790119  0.07302500     0.90470
C83         C  0.01611700  0.98851455  0.27027573     0.91690
C84         C  0.43667425  0.36840620  0.21076738     0.76040
O85         O  0.41618582  0.39458907  0.12355405    -0.50570
O86         O  0.42216992  0.39602862  0.22643966    -0.51730
O87         O  0.45103519  0.49807151  0.20743968    -0.64580
O88         O  0.02336485  0.42524887  0.12771953    -0.65710
C89         C  0.12741167  0.15665817  0.07432832    -0.11760
C90         C  0.11521443  0.15183176  0.12456776     0.05130
C91         C  0.12073125  0.18637588  0.16043933    -0.07160
C92         C  0.13627558  0.22411814  0.14532709    -0.07910
C93         C  0.14861130  0.22898827  0.09541804    -0.02460
C94         C  0.14476241  0.19484567  0.05900082     0.04360
N95         N  0.15843985  0.19801099  0.00708710     0.66860
H96         H  0.12324265  0.13038383  0.04682586     0.15760
H97         H  0.14049312  0.25031117  0.17317323     0.15470
N98         N  0.11298255  0.18410255  0.21236639     0.74570
O99         O  0.16160679  0.16797153  0.47676315    -0.38880
O100        O  0.16734804  0.23047750  0.99089617    -0.38830
O101        O  0.13127489  0.16718464  0.22936052    -0.39530
O102        O  0.09498416  0.20575460  0.24194831    -0.39600
C103        C  0.27307602  0.37379081  0.14746479    -0.11880
C104        C  0.26819227  0.35291402  0.10011014     0.05130
C105        C  0.30286159  0.35090179  0.06547869    -0.07160
C106        C  0.34160960  0.37004976  0.07991924    -0.07910
C107        C  0.34659914  0.39079213  0.12774226    -0.02460
C108        C  0.31143636  0.39214120  0.16239700     0.04360
N109        N  0.31308355  0.40955176  0.21337638     0.66860
H110        H  0.24613896  0.37410257  0.17395877     0.15760
H111        H  0.36828681  0.36948577  0.05323514     0.15470
N112        N  0.29955790  0.33037994  0.51582092     0.74570
O113        O  0.28393050  0.41995071  0.23881018    -0.38880
O114        O  0.33978863  0.40862223  0.23538091    -0.38830
O115        O  0.26986802  0.32641646  0.49545158    -0.39530
O116        O  0.32790719  0.31858819  0.49071307    -0.39600
C117        C  0.14775025  0.39731395  0.07958765    -0.11880
C118        C  0.13183029  0.35979090  0.09627651     0.05130
C119        C  0.09122839  0.34804966  0.12137808    -0.07160
C120        C  0.06819074  0.37320681  0.12868162    -0.07910
C121        C  0.08498834  0.41138975  0.11462619    -0.02460
C122        C  0.12545742  0.42359379  0.08939093     0.04360
N123        N  0.14445104  0.46218622  0.07322024     0.66860
H124        H  0.17803349  0.40652266  0.05863013     0.15760
H125        H  0.03765754  0.36385753  0.14899953     0.15470
N126        N  0.07325893  0.31188301  0.14258393     0.74570
O127        O  0.18252868  0.47904949  0.06958257    -0.38880
O128        O  0.12387694  0.47827639  0.05896104    -0.38830
O129        O  0.08879921  0.30612680  0.17544452    -0.39530
O130        O  0.03989753  0.28709854  0.13133989    -0.39600
C131        C  0.14807855  0.21144131  0.35529006    -0.11880
C132        C  0.13338463  0.23924506  0.38860675     0.05130
C133        C  0.10021400  0.22631055  0.42607748    -0.07160
C134        C  0.08236391  0.18529375  0.42860935    -0.07910
C135        C  0.09740926  0.15736830  0.39565119    -0.02460
C136        C  0.13156016  0.17055843  0.35863121     0.04360
N137        N  0.15206030  0.14458139  0.32666498     0.66860
H138        H  0.17375534  0.22223934  0.32704427     0.15760
H139        H  0.05757659  0.17505002  0.45804374     0.15470
N140        N  0.08576255  0.25405222  0.46309616     0.74570
O141        O  0.18587146  0.15935336  0.30040247    -0.38880
O142        O  0.13768537  0.10721290  0.32472065    -0.38830
O143        O  0.04964609  0.24316416  0.48537190    -0.39530
O144        O  0.10992325  0.28796809  0.47751722    -0.39600
C145        C  0.27803267  0.39564081  0.39908696    -0.11880
C146        C  0.26325119  0.35431903  0.38259519     0.05130
C147        C  0.28974411  0.33206569  0.37557701    -0.07160
C148        C  0.32920245  0.35148123  0.38681255    -0.07910
C149        C  0.34414706  0.39287563  0.40053140    -0.02460
C150        C  0.31858816  0.41551863  0.40604574     0.04360
N151        N  0.33354597  0.45846773  0.41594986     0.66860
H152        H  0.25807731  0.41298592  0.40569513     0.15760
H153        H  0.34935273  0.33443239  0.38191480     0.15470
N154        N  0.27827430  0.29058076  0.35486983     0.74570
O155        O  0.30955807  0.47709489  0.43740365    -0.38880
O156        O  0.36875531  0.47797700  0.39653668    -0.38830
O157        O  0.25971811  0.27801324  0.31803371    -0.39530
O158        O  0.29097497  0.26743376  0.36945873    -0.39600
C159        C  0.15053931  0.40840212  0.38540098    -0.11880
C160        C  0.13855464  0.37106253  0.35588723     0.05130
C161        C  0.10452222  0.36024156  0.33144885    -0.07160
C162        C  0.08171766  0.38592811  0.34047095    -0.07910
C163        C  0.09293619  0.42242926  0.37185843    -0.02460
C164        C  0.12815842  0.43400629  0.39404885     0.04360
N165        N  0.13950688  0.46956609  0.42923837     0.66860
H166        H  0.17577065  0.41649015  0.40545470     0.15760
H167        H  0.05500442  0.37748398  0.32297602     0.15470
N168        N  0.09303388  0.32386939  0.29743197     0.74570
O169        O  0.17660434  0.48882458  0.43175453    -0.38880
O170        O  0.11299754  0.47772441  0.46318748    -0.38830
O171        O  0.05661579  0.30730573  0.28994036    -0.39530
O172        O  0.11975411  0.31013269  0.27140843    -0.39600
C173        C  0.38318745  0.07729804  0.25598133    -0.11880
C174        C  0.40334918  0.11693251  0.24682827     0.05130
C175        C  0.44657980  0.13043713  0.23782890    -0.07160
C176        C  0.46725698  0.10365425  0.23288493    -0.07910
C177        C  0.44660797  0.06297209  0.23526441    -0.02460
C178        C  0.40389854  0.05014846  0.24953093     0.04360
N179        N  0.38050382  0.00960746  0.25578108     0.66860
H180        H  0.35051371  0.06669448  0.26696345     0.15760
H181        H  0.50009671  0.11481377  0.22364663     0.15470
N182        N  0.47092091  0.17027285  0.23023680     0.74570
O183        O  0.38983922  0.49241927  0.28373029    -0.38880
O184        O  0.34662813  0.49360510  0.24062381    -0.38830
O185        O  0.48417937  0.19458917  0.26702780    -0.39530
O186        O  0.49105154  0.17588462  0.18787461    -0.39600
C187        C  0.36285792  0.27285702  0.25759304    -0.11880
C188        C  0.38663334  0.24790962  0.24314777     0.05130
C189        C  0.42767507  0.26464608  0.22131283    -0.07160
C190        C  0.44385145  0.30492562  0.21574589    -0.07910
C191        C  0.41959923  0.32897187  0.22776142    -0.02460
C192        C  0.37850309  0.31267399  0.24903182     0.04360
N193        N  0.35142258  0.33493599  0.25874380     0.66860
H194        H  0.33158928  0.26139632  0.27483901     0.15760
H195        H  0.47511803  0.31672072  0.19821464     0.15470
N196        N  0.45262871  0.24076591  0.20003402     0.74570
O197        O  0.31820887  0.32048737  0.24188543    -0.38880
O198        O  0.35836534  0.36681819  0.28872604    -0.38830
O199        O  0.44217713  0.21335450  0.16462318    -0.39530
O200        O  0.48858909  0.25261470  0.20896491    -0.39600
C201        C  0.20905184  0.11936746  0.19039086    -0.11880
C202        C  0.18856757  0.08080006  0.20195427     0.05130
C203        C  0.20973400  0.06055171  0.21722421    -0.07160
C204        C  0.25085630  0.08074041  0.22273478    -0.07910
C205        C  0.27192429  0.11984394  0.21118208    -0.02460
C206        C  0.25076872  0.13814342  0.19165504     0.04360
N207        N  0.27128771  0.17411175  0.16970585     0.66860
H208        H  0.19264106  0.13417611  0.17755969     0.15760
H209        H  0.26572179  0.06618924  0.23850466     0.15470
N210        N  0.18997133  0.02052172  0.22913107     0.74570
O211        O  0.30528815  0.17897550  0.14233637    -0.38880
O212        O  0.25364308  0.19905983  0.17318311    -0.38830
O213        O  0.21077765  0.99880796  0.22789611    -0.39530
O214        O  0.15223944  0.00759632  0.24440781    -0.39600
C215        C  0.46035638  0.09697880  0.44826225    -0.11880
C216        C  0.44421042  0.06163212  0.46927383     0.05130
C217        C  0.40491380  0.05173061  0.49758758    -0.07160
C218        C  0.38271148  0.07763923  0.50360513    -0.07910
C219        C  0.39827179  0.11252722  0.48119556    -0.02460
C220        C  0.43749706  0.12184238  0.45242682     0.04360
N221        N  0.45330567  0.15434487  0.42398493     0.66860
H222        H  0.48999414  0.10384151  0.42543803     0.15760
H223        H  0.35296367  0.07057989  0.52614564     0.15470
N224        N  0.38734711  0.01612278  0.52083350     0.74570
O225        O  0.49057210  0.17514781  0.42010561    -0.38880
O226        O  0.43158348  0.15868091  0.39709664    -0.38830
O227        O  0.40960189  0.50212929  0.53547484    -0.39530
O228        O  0.34920742  0.50054385  0.53090021    -0.39600
C229        C  0.41568923  0.31639214  0.00993506    -0.11880
C230        C  0.42804080  0.32313113  0.46038655     0.05130
C231        C  0.42129540  0.28987214  0.42277828    -0.07160
C232        C  0.40043757  0.25155071  0.43501641    -0.07910
C233        C  0.38671445  0.24490075  0.48410336    -0.02460
C234        C  0.39463458  0.27762561  0.02249627     0.04360
N235        N  0.38093109  0.27244259  0.07370586     0.66860
H236        H  0.42122156  0.34161158  0.03897223     0.15760
H237        H  0.39519888  0.22640726  0.40566188     0.15470
N238        N  0.43503532  0.29419962  0.37174383     0.74570
O239        O  0.39786940  0.29858722  0.10700091    -0.38880
O240        O  0.34973256  0.24368398  0.08629721    -0.38830
O241        O  0.47260729  0.30816047  0.35610034    -0.39530
O242        O  0.41051332  0.27762449  0.34121379    -0.39600
C243        C  0.25905007  0.11141180  0.41969909    -0.11880
C244        C  0.26585506  0.12247126  0.46879954     0.05130
C245        C  0.23261410  0.11461827  0.00713178    -0.07160
C246        C  0.19320049  0.09573945  0.49582878    -0.07910
C247        C  0.18599653  0.08444288  0.44675455    -0.02460
C248        C  0.21952203  0.09234198  0.40824911     0.04360
N249        N  0.21418978  0.08218858  0.35752629     0.66860
H250        H  0.28465135  0.11755234  0.39009687     0.15760
H251        H  0.16801292  0.08979162  0.02589742     0.15470
N252        N  0.23824128  0.12613047  0.05771957     0.74570
O253        O  0.22986105  0.10864359  0.32946861    -0.38880
O254        O  0.20099264  0.04600749  0.33899760    -0.38830
O255        O  0.21519313  0.14242464  0.08771889    -0.39530
O256        O  0.26277700  0.11585212  0.07355931    -0.39600
C257        C  0.30783324  0.14242122  0.47925322     0.03520
C258        C  0.32506122  0.18407955  0.48500782    -0.12630
C259        C  0.36577381  0.20286778  0.49220110     0.01020
C260        C  0.38883037  0.17964538  0.49486844    -0.11160
C261        C  0.37240184  0.13766767  0.48669041     0.03510
C262        C  0.33157248  0.11942047  0.47958151    -0.10580
H263        H  0.30747052  0.20173590  0.48135524     0.09110
H264        H  0.42043189  0.19428091  0.49959471     0.06640
H265        H  0.31851496  0.08721246  0.47236599     0.06480
C266        C  0.31414047  0.14180990  0.72389216     0.03520
C267        C  0.32802172  0.18344152  0.73689743    -0.12630
C268        C  0.36769441  0.20428204  0.74696055     0.01020
C269        C  0.39019559  0.18257275  0.75572918    -0.11160
C270        C  0.37788964  0.14088143  0.74293838     0.03510
C271        C  0.34055450  0.12130729  0.72448215    -0.10580
H272        H  0.30844468  0.19998675  0.73752823     0.09110
H273        H  0.41754295  0.19878209  0.77139378     0.06640
H274        H  0.33197396  0.08984612  0.71045779     0.06480
C275        C  0.21989356  0.33564858  0.87506303     0.03520
C276        C  0.20118772  0.35677604  0.85734230    -0.12630
C277        C  0.15893032  0.34276380  0.85816545     0.01020
C278        C  0.13603169  0.30432427  0.86986669    -0.11160
C279        C  0.15504727  0.28151278  0.88329346     0.03510
C280        C  0.19605122  0.29823249  0.88905836    -0.10580
H281        H  0.21900567  0.38554943  0.84571958     0.09110
H282        H  0.10351131  0.29245766  0.86975383     0.06640
H283        H  0.20909021  0.28160606  0.90430030     0.06480
C284        C  0.22597337  0.33185138  0.59008986     0.03520
C285        C  0.20053987  0.35389193  0.59243420    -0.12630
C286        C  0.15881796  0.33492730  0.58917636     0.01020
C287        C  0.14334921  0.29275835  0.58284328    -0.11160
C288        C  0.16782801  0.27063667  0.58465269     0.03510
C289        C  0.20933576  0.29026442  0.58697483    -0.10580
H290        H  0.21331846  0.38610198  0.59921078     0.09110
H291        H  0.11181883  0.27679170  0.57902613     0.06640
H292        H  0.22806072  0.27348382  0.58981960     0.06480
C293        C  0.14323095  0.06717182  0.93790177     0.76840
Tb294      Tb  0.46750630  0.44141340  0.92268801     1.80740
O295        O  0.13216296  0.05394802  0.89614223    -0.51180
O296        O  0.06660816  0.08617649  0.87546515    -0.58630
C297        C  0.06594708  0.44642070  0.88470789     0.92660
O298        O  0.45203799  0.37230531  0.90467518    -0.58150
Tb299      Tb  0.06156183  0.03824069  0.92353225     1.78060
O300        O  0.39873971  0.43644387  0.94421831    -0.58650
O301        O  0.00190778  0.04559934  0.97125314    -0.77460
O302        O  0.08174019  0.48386717  0.88535357    -0.76780
O303        O  0.04530105  0.01174088  0.49725021    -0.62040
C304        C  0.46779607  0.03432692  0.95675921     0.92250
O305        O  0.99236659  0.45684022  0.84205666    -0.73990
C306        C  0.38677194  0.41116813  0.90763320     0.75690
C307        C  0.08081693  0.11618253  0.90624169     0.76670
O308        O  0.11363077  0.06512555  0.97221688    -0.59240
O309        O  0.08163558  0.10750638  0.94693531    -0.51180
O310        O  0.48281574  0.46614377  0.00265743    -0.77250
O311        O  0.03869913  0.01836456  0.84677411    -0.61250
C312        C  0.01564313  0.48780702  0.82294824     0.90470
C313        C  0.01452388  0.98849140  0.52107721     0.91690
C314        C  0.44381577  0.36455758  0.94826123     0.76040
O315        O  0.41485221  0.40189507  0.87803968    -0.50570
O316        O  0.44840852  0.39558427  0.97994317    -0.51730
O317        O  0.45391193  0.50091369  0.93046473    -0.64580
O318        O  0.02837279  0.42849132  0.89739504    -0.65710
C319        C  0.14603448  0.06240560  0.69376036     0.76840
Tb320      Tb  0.46544494  0.44010746  0.67168398     1.80740
O321        O  0.13430328  0.03452478  0.65947959    -0.51180
O322        O  0.09864762  0.07949736  0.61058089    -0.58630
C323        C  0.06099217  0.43876667  0.63174763     0.92660
O324        O  0.46667884  0.37718325  0.67695092    -0.58150
Tb325      Tb  0.06720013  0.03513997  0.67043425     1.78060
O326        O  0.39998265  0.44099747  0.67001046    -0.58650
O327        O  0.00847308  0.05032124  0.70588354    -0.77460
O328        O  0.07888363  0.47410237  0.65125889    -0.76780
O329        O  0.04306522  0.01724949  0.74989853    -0.62040
C330        C  0.47005682  0.03515235  0.71599568     0.92250
O331        O  0.98592426  0.46222654  0.59522180    -0.73990
C332        C  0.38848176  0.40947046  0.64029140     0.75690
C333        C  0.09698321  0.11094061  0.63895770     0.76670
O334        O  0.11842126  0.07548131  0.71771081    -0.59240
O335        O  0.07884837  0.10403043  0.68162820    -0.51180
O336        O  0.98935863  0.46055569  0.74800447    -0.77250
O337        O  0.04541593  0.01292292  0.59295064    -0.61250
C338        C  0.01541047  0.48790122  0.57302502     0.90470
C339        C  0.01611699  0.98851455  0.77027573     0.91690
C340        C  0.43667425  0.36840619  0.71076736     0.76040
O341        O  0.41618582  0.39458909  0.62355405    -0.50570
O342        O  0.42216993  0.39602862  0.72643965    -0.51730
O343        O  0.45103519  0.49807150  0.70743969    -0.64580
O344        O  0.02336485  0.42524888  0.62771958    -0.65710
C345        C  0.12741167  0.15665819  0.57432833    -0.11760
C346        C  0.11521443  0.15183179  0.62456777     0.05130
C347        C  0.12073126  0.18637591  0.66043934    -0.07160
C348        C  0.13627560  0.22411817  0.64532709    -0.07910
C349        C  0.14861130  0.22898829  0.59541804    -0.02460
C350        C  0.14476240  0.19484570  0.55900082     0.04360
N351        N  0.15843982  0.19801102  0.50708711     0.66860
H352        H  0.12324263  0.13038386  0.54682587     0.15760
H353        H  0.14049316  0.25031120  0.67317324     0.15470
N354        N  0.11298258  0.18410259  0.71236640     0.74570
O355        O  0.16160679  0.16797150  0.97676314    -0.38880
O356        O  0.16734797  0.23047751  0.49089617    -0.38830
O357        O  0.13127493  0.16718468  0.72936052    -0.39530
O358        O  0.09498419  0.20575464  0.74194832    -0.39600
C359        C  0.27307602  0.37379080  0.64746482    -0.11880
C360        C  0.26819227  0.35291406  0.60011016     0.05130
C361        C  0.30286159  0.35090188  0.56547868    -0.07160
C362        C  0.34160961  0.37004985  0.57991922    -0.07910
C363        C  0.34659914  0.39079217  0.62774227    -0.02460
C364        C  0.31143636  0.39214120  0.66239703     0.04360
N365        N  0.31308356  0.40955173  0.71337641     0.66860
H366        H  0.24613896  0.37410254  0.67395882     0.15760
H367        H  0.36828681  0.36948590  0.55323511     0.15470
N368        N  0.29955790  0.33037981  0.01582095     0.74570
O369        O  0.28393050  0.41995065  0.73881025    -0.38880
O370        O  0.33978865  0.40862221  0.73538092    -0.38830
O371        O  0.26986803  0.32641633  0.99545158    -0.39530
O372        O  0.32790717  0.31858803  0.99071314    -0.39600
C373        C  0.14775026  0.39731398  0.57958764    -0.11880
C374        C  0.13183030  0.35979092  0.59627650     0.05130
C375        C  0.09122840  0.34804969  0.62137807    -0.07160
C376        C  0.06819075  0.37320684  0.62868161    -0.07910
C377        C  0.08498835  0.41138978  0.61462619    -0.02460
C378        C  0.12545743  0.42359382  0.58939092     0.04360
N379        N  0.14445106  0.46218625  0.57322024     0.66860
H380        H  0.17803351  0.40652269  0.55863012     0.15760
H381        H  0.03765755  0.36385756  0.64899952     0.15470
N382        N  0.07325894  0.31188304  0.64258392     0.74570
O383        O  0.18252869  0.47904952  0.56958257    -0.38880
O384        O  0.12387696  0.47827642  0.55896103    -0.38830
O385        O  0.08879920  0.30612683  0.67544453    -0.39530
O386        O  0.03989756  0.28709855  0.63133983    -0.39600
C387        C  0.14807852  0.21144129  0.85529012    -0.11880
C388        C  0.13338462  0.23924504  0.88860684     0.05130
C389        C  0.10021400  0.22631053  0.92607757    -0.07160
C390        C  0.08236391  0.18529373  0.92860943    -0.07910
C391        C  0.09740925  0.15736827  0.89565125    -0.02460
C392        C  0.13156014  0.17055841  0.85863126     0.04360
N393        N  0.15206027  0.14458138  0.82666500     0.66860
H394        H  0.17375531  0.22223933  0.82704432     0.15760
H395        H  0.05757659  0.17504999  0.95804383     0.15470
N396        N  0.08576255  0.25405219  0.96309627     0.74570
O397        O  0.18587136  0.15935334  0.80040237    -0.38880
O398        O  0.13768542  0.10721289  0.82472079    -0.38830
O399        O  0.04964610  0.24316412  0.98537204    -0.39530
O400        O  0.10992325  0.28796807  0.97751731    -0.39600
C401        C  0.27803266  0.39564079  0.89908704    -0.11880
C402        C  0.26325118  0.35431901  0.88259526     0.05130
C403        C  0.28974410  0.33206567  0.87557706    -0.07160
C404        C  0.32920245  0.35148121  0.88681260    -0.07910
C405        C  0.34414706  0.39287562  0.90053145    -0.02460
C406        C  0.31858815  0.41551861  0.90604580     0.04360
N407        N  0.33354595  0.45846771  0.91594994     0.66860
H408        H  0.25807729  0.41298590  0.90569522     0.15760
H409        H  0.34935272  0.33443238  0.88191484     0.15470
N410        N  0.27827429  0.29058074  0.85486989     0.74570
O411        O  0.30955805  0.47709487  0.93740374    -0.38880
O412        O  0.36875528  0.47797699  0.89653674    -0.38830
O413        O  0.25971809  0.27801322  0.81803378    -0.39530
O414        O  0.29097498  0.26743375  0.86945877    -0.39600
C415        C  0.15053930  0.40840210  0.88540103    -0.11880
C416        C  0.13855463  0.37106251  0.85588730     0.05130
C417        C  0.10452220  0.36024153  0.83144892    -0.07160
C418        C  0.08171765  0.38592807  0.84047101    -0.07910
C419        C  0.09293618  0.42242923  0.87185847    -0.02460
C420        C  0.12815841  0.43400627  0.89404888     0.04360
N421        N  0.13950689  0.46956609  0.92923837     0.66860
H422        H  0.17577064  0.41649014  0.90545474     0.15760
H423        H  0.05500440  0.37748395  0.82297608     0.15470
N424        N  0.09303386  0.32386935  0.79743205     0.74570
O425        O  0.17660434  0.48882457  0.93175452    -0.38880
O426        O  0.11299755  0.47772443  0.96318748    -0.38830
O427        O  0.05661577  0.30730568  0.78994044    -0.39530
O428        O  0.11975409  0.31013265  0.77140851    -0.39600
C429        C  0.38318745  0.07729803  0.75598137    -0.11880
C430        C  0.40334918  0.11693250  0.74682829     0.05130
C431        C  0.44657980  0.13043712  0.73782890    -0.07160
C432        C  0.46725698  0.10365424  0.73288493    -0.07910
C433        C  0.44660797  0.06297208  0.73526443    -0.02460
C434        C  0.40389854  0.05014846  0.74953098     0.04360
N435        N  0.38050382  0.00960746  0.75578119     0.66860
H436        H  0.35051371  0.06669448  0.76696350     0.15760
H437        H  0.50009671  0.11481375  0.72364661     0.15470
N438        N  0.47092091  0.17027283  0.73023677     0.74570
O439        O  0.38983928  0.49241928  0.78373035    -0.38880
O440        O  0.34662810  0.49360510  0.74062399    -0.38830
O441        O  0.48417939  0.19458915  0.76702776    -0.39530
O442        O  0.49105152  0.17588459  0.68787458    -0.39600
C443        C  0.36285792  0.27285700  0.75759303    -0.11880
C444        C  0.38663334  0.24790960  0.74314775     0.05130
C445        C  0.42767507  0.26464606  0.72131280    -0.07160
C446        C  0.44385144  0.30492560  0.71574586    -0.07910
C447        C  0.41959922  0.32897186  0.72776139    -0.02460
C448        C  0.37850309  0.31267398  0.74903181     0.04360
N449        N  0.35142259  0.33493600  0.75874384     0.66860
H450        H  0.33158928  0.26139631  0.77483901     0.15760
H451        H  0.47511803  0.31672070  0.69821460     0.15470
N452        N  0.45262870  0.24076589  0.70003400     0.74570
O453        O  0.31820886  0.32048738  0.74188552    -0.38880
O454        O  0.35836538  0.36681819  0.78872608    -0.38830
O455        O  0.44217713  0.21335449  0.66462316    -0.39530
O456        O  0.48858908  0.25261468  0.70896490    -0.39600
C457        C  0.20905186  0.11936746  0.69039085    -0.11880
C458        C  0.18856758  0.08080007  0.70195427     0.05130
C459        C  0.20973400  0.06055171  0.71722422    -0.07160
C460        C  0.25085630  0.08074041  0.72273479    -0.07910
C461        C  0.27192429  0.11984393  0.71118208    -0.02460
C462        C  0.25076874  0.13814341  0.69165503     0.04360
N463        N  0.27128773  0.17411175  0.66970584     0.66860
H464        H  0.19264109  0.13417611  0.67755966     0.15760
H465        H  0.26572178  0.06618924  0.73850468     0.15470
N466        N  0.18997133  0.02052173  0.72913108     0.74570
O467        O  0.30528818  0.17897549  0.64233638    -0.38880
O468        O  0.25364312  0.19905983  0.67318309    -0.38830
O469        O  0.21077764  0.99880795  0.72789613    -0.39530
O470        O  0.15223943  0.00759634  0.74440783    -0.39600
C471        C  0.46035636  0.09697878  0.94826223    -0.11880
C472        C  0.44421042  0.06163211  0.96927383     0.05130
C473        C  0.40491380  0.05173061  0.99758760    -0.07160
C474        C  0.38271149  0.07763923  0.00360516    -0.07910
C475        C  0.39827178  0.11252721  0.98119556    -0.02460
C476        C  0.43749705  0.12184236  0.95242680     0.04360
N477        N  0.45330564  0.15434484  0.92398490     0.66860
H478        H  0.48999411  0.10384148  0.92543799     0.15760
H479        H  0.35296368  0.07057989  0.02614568     0.15470
N480        N  0.38734712  0.01612278  0.02083354     0.74570
O481        O  0.49057207  0.17514776  0.92010552    -0.38880
O482        O  0.43158343  0.15868087  0.89709663    -0.38830
O483        O  0.40960193  0.50212931  0.03547488    -0.39530
O484        O  0.34920744  0.50054387  0.03090029    -0.39600
C485        C  0.41568913  0.31639215  0.50993507    -0.11880
C486        C  0.42804080  0.32313111  0.96038654     0.05130
C487        C  0.42129528  0.28987213  0.92277828    -0.07160
C488        C  0.40043746  0.25155071  0.93501641    -0.07910
C489        C  0.38671445  0.24490074  0.98410337    -0.02460
C490        C  0.39463447  0.27762562  0.52249626     0.04360
N491        N  0.38093085  0.27244261  0.57370584     0.66860
H492        H  0.42122139  0.34161160  0.53897224     0.15760
H493        H  0.39519868  0.22640726  0.90566188     0.15470
N494        N  0.43503505  0.29419961  0.87174380     0.74570
O495        O  0.39786907  0.29858724  0.60700094    -0.38880
O496        O  0.34973229  0.24368400  0.58629712    -0.38830
O497        O  0.47260700  0.30816033  0.85610013    -0.39530
O498        O  0.41051290  0.27762461  0.84121392    -0.39600
C499        C  0.25905007  0.11141181  0.91969910    -0.11880
C500        C  0.26585506  0.12247125  0.96879955     0.05130
C501        C  0.23261411  0.11461829  0.50713177    -0.07160
C502        C  0.19320049  0.09573942  0.99582878    -0.07910
C503        C  0.18599653  0.08444287  0.94675456    -0.02460
C504        C  0.21952203  0.09234200  0.90824911     0.04360
N505        N  0.21418978  0.08218861  0.85752629     0.66860
H506        H  0.28465135  0.11755237  0.89009688     0.15760
H507        H  0.16801292  0.08979167  0.52589742     0.15470
N508        N  0.23824129  0.12613051  0.55771956     0.74570
O509        O  0.22986104  0.10864364  0.82946864    -0.38880
O510        O  0.20099266  0.04600752  0.83899758    -0.38830
O511        O  0.21519314  0.14242469  0.58771888    -0.39530
O512        O  0.26277700  0.11585216  0.57355931    -0.39600
C513        C  0.30783324  0.64242121  0.97925323     0.03520
C514        C  0.32506123  0.68407954  0.98500782    -0.12630
C515        C  0.36577382  0.70286777  0.99220110     0.01020
C516        C  0.38883038  0.67964536  0.99486843    -0.11160
C517        C  0.37240184  0.63766766  0.98669041     0.03510
C518        C  0.33157249  0.61942046  0.97958151    -0.10580
H519        H  0.30747053  0.70173589  0.98135524     0.09110
H520        H  0.42043191  0.69428089  0.99959469     0.06640
H521        H  0.31851497  0.58721245  0.97236599     0.06480
C522        C  0.31414048  0.64180992  0.22389214     0.03520
C523        C  0.32802172  0.68344153  0.23689742    -0.12630
C524        C  0.36769441  0.70428205  0.24696055     0.01020
C525        C  0.39019558  0.68257276  0.25572918    -0.11160
C526        C  0.37788964  0.64088144  0.24293836     0.03510
C527        C  0.34055451  0.62130731  0.22448212    -0.10580
H528        H  0.30844468  0.69998676  0.23752822     0.09110
H529        H  0.41754294  0.69878209  0.27139379     0.06640
H530        H  0.33197397  0.58984614  0.21045774     0.06480
C531        C  0.21989356  0.83564860  0.37506296     0.03520
C532        C  0.20118772  0.85677606  0.35734224    -0.12630
C533        C  0.15893032  0.84276382  0.35816538     0.01020
C534        C  0.13603169  0.80432428  0.36986662    -0.11160
C535        C  0.15504727  0.78151279  0.38329338     0.03510
C536        C  0.19605122  0.79823251  0.38905829    -0.10580
H537        H  0.21900567  0.88554945  0.34571952     0.09110
H538        H  0.10351131  0.79245768  0.36975376     0.06640
H539        H  0.20909021  0.78160607  0.40430022     0.06480
C540        C  0.22597336  0.83185135  0.09008983     0.03520
C541        C  0.20053986  0.85389189  0.09243418    -0.12630
C542        C  0.15881794  0.83492727  0.08917635     0.01020
C543        C  0.14334920  0.79275832  0.08284327    -0.11160
C544        C  0.16782799  0.77063664  0.08465268     0.03510
C545        C  0.20933575  0.79026439  0.08697481    -0.10580
H546        H  0.21331845  0.88610195  0.09921076     0.09110
H547        H  0.11181882  0.77679167  0.07902613     0.06640
H548        H  0.22806071  0.77348378  0.08981957     0.06480
C549        C  0.14323096  0.56717184  0.43790175     0.76840
Tb550      Tb  0.46750629  0.94141341  0.42268801     1.80740
O551        O  0.13216296  0.55394804  0.39614221    -0.51180
O552        O  0.06660813  0.58617650  0.37546515    -0.58630
C553        C  0.06594707  0.94642072  0.38470788     0.92660
O554        O  0.45203799  0.87230532  0.40467518    -0.58150
Tb555      Tb  0.06156183  0.53824071  0.42353224     1.78060
O556        O  0.39873969  0.93644386  0.44421830    -0.58650
O557        O  0.00190778  0.54559936  0.47125314    -0.77460
O558        O  0.08174019  0.98386719  0.38535364    -0.76780
O559        O  0.04530110  0.51174075  0.99725015    -0.62040
C560        C  0.46779608  0.53432692  0.45675919     0.92250
O561        O  0.99236656  0.95684023  0.34205667    -0.73990
C562        C  0.38677193  0.91116813  0.40763317     0.75690
C563        C  0.08081693  0.61618255  0.40624166     0.76670
O564        O  0.11363078  0.56512557  0.47221687    -0.59240
O565        O  0.08163561  0.60750642  0.44693528    -0.51180
O566        O  0.48281572  0.96614380  0.50265744    -0.77250
O567        O  0.03869913  0.51836458  0.34677410    -0.61250
C568        C  0.01564312  0.98780703  0.32294824     0.90470
C569        C  0.01452387  0.48849136  0.02107719     0.91690
C570        C  0.44381577  0.86455759  0.44826123     0.76040
O571        O  0.41485221  0.90189508  0.37803966    -0.50570
O572        O  0.44840849  0.89558427  0.47994317    -0.51730
O573        O  0.45391192  0.00091370  0.43046474    -0.64580
O574        O  0.02837278  0.92849132  0.39739496    -0.65710
C575        C  0.14603448  0.56240558  0.19376034     0.76840
Tb576      Tb  0.46544492  0.94010746  0.17168399     1.80740
O577        O  0.13430329  0.53452478  0.15947955    -0.51180
O578        O  0.09864764  0.57949733  0.11058087    -0.58630
C579        C  0.06099215  0.93876664  0.13174763     0.92660
O580        O  0.46667886  0.87718327  0.17695097    -0.58150
Tb581      Tb  0.06720013  0.53513993  0.17043422     1.78060
O582        O  0.39998263  0.94099745  0.17001044    -0.58650
O583        O  0.00847306  0.55032121  0.20588343    -0.77460
O584        O  0.07888361  0.97410233  0.15125892    -0.76780
O585        O  0.04306522  0.51724950  0.24989852    -0.62040
C586        C  0.47005683  0.53515236  0.21599566     0.92250
O587        O  0.98592423  0.96222654  0.09522181    -0.73990
C588        C  0.38848175  0.90947044  0.14029139     0.75690
C589        C  0.09698321  0.61094057  0.13895768     0.76670
O590        O  0.11842124  0.57548128  0.21771081    -0.59240
O591        O  0.07884835  0.60403039  0.18162816    -0.51180
O592        O  0.98935863  0.96055567  0.24800447    -0.77250
O593        O  0.04541596  0.51292284  0.09295060    -0.61250
C594        C  0.01541046  0.98790119  0.07302500     0.90470
C595        C  0.01611700  0.48851455  0.27027573     0.91690
C596        C  0.43667425  0.86840620  0.21076738     0.76040
O597        O  0.41618581  0.89458907  0.12355405    -0.50570
O598        O  0.42216990  0.89602862  0.22643964    -0.51730
O599        O  0.45103519  0.99807151  0.20743968    -0.64580
O600        O  0.02336484  0.92524886  0.12771954    -0.65710
C601        C  0.12741168  0.65665816  0.07432830    -0.11760
C602        C  0.11521442  0.65183176  0.12456774     0.05130
C603        C  0.12073123  0.68637588  0.16043931    -0.07160
C604        C  0.13627557  0.72411814  0.14532707    -0.07910
C605        C  0.14861129  0.72898826  0.09541802    -0.02460
C606        C  0.14476242  0.69484567  0.05900080     0.04360
N607        N  0.15843986  0.69801099  0.00708709     0.66860
H608        H  0.12324266  0.63038383  0.04682584     0.15760
H609        H  0.14049311  0.75031116  0.17317321     0.15470
N610        N  0.11298253  0.68410255  0.21236637     0.74570
O611        O  0.16160680  0.66797152  0.47676314    -0.38880
O612        O  0.16734806  0.73047750  0.99089615    -0.38830
O613        O  0.13127488  0.66718465  0.22936051    -0.39530
O614        O  0.09498413  0.70575460  0.24194828    -0.39600
C615        C  0.27307602  0.87379080  0.14746478    -0.11880
C616        C  0.26819226  0.85291402  0.10011013     0.05130
C617        C  0.30286158  0.85090180  0.06547868    -0.07160
C618        C  0.34160960  0.87004977  0.07991923    -0.07910
C619        C  0.34659914  0.89079213  0.12774226    -0.02460
C620        C  0.31143635  0.89214120  0.16239700     0.04360
N621        N  0.31308354  0.90955176  0.21337637     0.66860
H622        H  0.24613895  0.87410257  0.17395877     0.15760
H623        H  0.36828680  0.86948579  0.05323513     0.15470
N624        N  0.29955790  0.83037995  0.51582091     0.74570
O625        O  0.28393049  0.91995071  0.23881017    -0.38880
O626        O  0.33978861  0.90862222  0.23538091    -0.38830
O627        O  0.26986802  0.82641647  0.49545157    -0.39530
O628        O  0.32790719  0.81858821  0.49071305    -0.39600
C629        C  0.14775024  0.89731395  0.07958764    -0.11880
C630        C  0.13183028  0.85979089  0.09627649     0.05130
C631        C  0.09122838  0.84804965  0.12137806    -0.07160
C632        C  0.06819073  0.87320681  0.12868160    -0.07910
C633        C  0.08498833  0.91138975  0.11462618    -0.02460
C634        C  0.12545741  0.92359379  0.08939092     0.04360
N635        N  0.14445104  0.96218623  0.07322024     0.66860
H636        H  0.17803349  0.90652266  0.05863012     0.15760
H637        H  0.03765753  0.86385752  0.14899951     0.15470
N638        N  0.07325892  0.81188300  0.14258391     0.74570
O639        O  0.18252868  0.97904949  0.06958258    -0.38880
O640        O  0.12387694  0.97827640  0.05896105    -0.38830
O641        O  0.08879920  0.80612679  0.17544450    -0.39530
O642        O  0.03989752  0.78709854  0.13133987    -0.39600
C643        C  0.14807852  0.71144130  0.35529007    -0.11880
C644        C  0.13338462  0.73924505  0.38860677     0.05130
C645        C  0.10021400  0.72631055  0.42607751    -0.07160
C646        C  0.08236391  0.68529375  0.42860938    -0.07910
C647        C  0.09740925  0.65736829  0.39565121    -0.02460
C648        C  0.13156014  0.67055843  0.35863122     0.04360
N649        N  0.15206027  0.64458138  0.32666498     0.66860
H650        H  0.17375531  0.72223933  0.32704426     0.15760
H651        H  0.05757660  0.67505002  0.45804379     0.15470
N652        N  0.08576256  0.75405222  0.46309621     0.74570
O653        O  0.18587141  0.65935335  0.30040243    -0.38880
O654        O  0.13768535  0.60721289  0.32472067    -0.38830
O655        O  0.04964611  0.74316416  0.48537197    -0.39530
O656        O  0.10992326  0.78796810  0.47751724    -0.39600
C657        C  0.27803266  0.89564080  0.39908697    -0.11880
C658        C  0.26325118  0.85431903  0.38259520     0.05130
C659        C  0.28974410  0.83206568  0.37557701    -0.07160
C660        C  0.32920244  0.85148122  0.38681255    -0.07910
C661        C  0.34414705  0.89287563  0.40053141    -0.02460
C662        C  0.31858815  0.91551862  0.40604575     0.04360
N663        N  0.33354596  0.95846772  0.41594988     0.66860
H664        H  0.25807729  0.91298592  0.40569514     0.15760
H665        H  0.34935272  0.83443239  0.38191480     0.15470
N666        N  0.27827429  0.79058075  0.35486983     0.74570
O667        O  0.30955806  0.97709489  0.43740367    -0.38880
O668        O  0.36875529  0.97797700  0.39653670    -0.38830
O669        O  0.25971809  0.77801324  0.31803371    -0.39530
O670        O  0.29097496  0.76743376  0.36945873    -0.39600
C671        C  0.15053929  0.90840211  0.38540101    -0.11880
C672        C  0.13855463  0.87106253  0.35588725     0.05130
C673        C  0.10452221  0.86024156  0.33144886    -0.07160
C674        C  0.08171765  0.88592810  0.34047096    -0.07910
C675        C  0.09293617  0.92242925  0.37185844    -0.02460
C676        C  0.12815840  0.93400628  0.39404887     0.04360
N677        N  0.13950686  0.96956608  0.42923839     0.66860
H678        H  0.17577063  0.91649014  0.40545472     0.15760
H679        H  0.05500441  0.87748398  0.32297603     0.15470
N680        N  0.09303387  0.82386939  0.29743198     0.74570
O681        O  0.17660431  0.98882457  0.43175457    -0.38880
O682        O  0.11299751  0.97772440  0.46318750    -0.38830
O683        O  0.05661578  0.80730572  0.28994036    -0.39530
O684        O  0.11975410  0.81013269  0.27140844    -0.39600
C685        C  0.38318745  0.57729804  0.25598132    -0.11880
C686        C  0.40334919  0.61693251  0.24682826     0.05130
C687        C  0.44657980  0.63043713  0.23782889    -0.07160
C688        C  0.46725698  0.60365425  0.23288492    -0.07910
C689        C  0.44660797  0.56297209  0.23526440    -0.02460
C690        C  0.40389854  0.55014846  0.24953092     0.04360
N691        N  0.38050382  0.50960746  0.25578106     0.66860
H692        H  0.35051371  0.56669448  0.26696344     0.15760
H693        H  0.50009671  0.61481377  0.22364662     0.15470
N694        N  0.47092091  0.67027285  0.23023679     0.74570
O695        O  0.38983923  0.99241928  0.28373030    -0.38880
O696        O  0.34662812  0.99360510  0.24062384    -0.38830
O697        O  0.48417938  0.69458917  0.26702779    -0.39530
O698        O  0.49105154  0.67588462  0.18787460    -0.39600
C699        C  0.36285792  0.77285702  0.25759306    -0.11880
C700        C  0.38663334  0.74790962  0.24314778     0.05130
C701        C  0.42767507  0.76464608  0.22131283    -0.07160
C702        C  0.44385145  0.80492562  0.21574589    -0.07910
C703        C  0.41959922  0.82897187  0.22776142    -0.02460
C704        C  0.37850309  0.81267399  0.24903183     0.04360
N705        N  0.35142257  0.83493599  0.25874381     0.66860
H706        H  0.33158928  0.76139632  0.27483903     0.15760
H707        H  0.47511803  0.81672072  0.19821464     0.15470
N708        N  0.45262871  0.74076591  0.20003401     0.74570
O709        O  0.31820887  0.82048736  0.24188543    -0.38880
O710        O  0.35836534  0.86681819  0.28872604    -0.38830
O711        O  0.44217713  0.71335451  0.16462318    -0.39530
O712        O  0.48858909  0.75261470  0.20896491    -0.39600
C713        C  0.20905185  0.61936746  0.19039086    -0.11880
C714        C  0.18856758  0.58080006  0.20195426     0.05130
C715        C  0.20973401  0.56055171  0.21722418    -0.07160
C716        C  0.25085631  0.58074041  0.22273476    -0.07910
C717        C  0.27192429  0.61984394  0.21118207    -0.02460
C718        C  0.25076873  0.63814342  0.19165504     0.04360
N719        N  0.27128771  0.67411176  0.16970586     0.66860
H720        H  0.19264106  0.63417612  0.17755969     0.15760
H721        H  0.26572179  0.56618924  0.23850463     0.15470
N722        N  0.18997134  0.52052172  0.22913104     0.74570
O723        O  0.30528815  0.67897552  0.14233638    -0.38880
O724        O  0.25364308  0.69905984  0.17318312    -0.38830
O725        O  0.21077766  0.49880795  0.22789607    -0.39530
O726        O  0.15223945  0.50759632  0.24440778    -0.39600
C727        C  0.46035639  0.59697879  0.44826223    -0.11880
C728        C  0.44421043  0.56163212  0.46927381     0.05130
C729        C  0.40491380  0.55173060  0.49758755    -0.07160
C730        C  0.38271149  0.57763922  0.50360509    -0.07910
C731        C  0.39827180  0.61252721  0.48119552    -0.02460
C732        C  0.43749708  0.62184237  0.45242679     0.04360
N733        N  0.45330569  0.65434487  0.42398491     0.66860
H734        H  0.48999415  0.60384150  0.42543802     0.15760
H735        H  0.35296367  0.57057988  0.52614559     0.15470
N736        N  0.38734711  0.51612277  0.52083347     0.74570
O737        O  0.49057212  0.67514780  0.42010560    -0.38880
O738        O  0.43158351  0.65868090  0.39709661    -0.38830
O739        O  0.40960190  0.00212930  0.53547486    -0.39530
O740        O  0.34920742  0.00054386  0.53090024    -0.39600
C741        C  0.41568920  0.81639214  0.00993506    -0.11880
C742        C  0.42804081  0.82313112  0.46038654     0.05130
C743        C  0.42129544  0.78987214  0.42277827    -0.07160
C744        C  0.40043761  0.75155071  0.43501638    -0.07910
C745        C  0.38671446  0.74490074  0.48410333    -0.02460
C746        C  0.39463456  0.77762561  0.02249625     0.04360
N747        N  0.38093104  0.77244259  0.07370584     0.66860
H748        H  0.42122152  0.84161158  0.03897222     0.15760
H749        H  0.39519895  0.72640726  0.40566185     0.15470
N750        N  0.43503541  0.79419963  0.37174382     0.74570
O751        O  0.39786932  0.79858721  0.10700090    -0.38880
O752        O  0.34973250  0.74368397  0.08629717    -0.38830
O753        O  0.47260739  0.80816052  0.35610038    -0.39530
O754        O  0.41051345  0.77762446  0.34121373    -0.39600
C755        C  0.25905008  0.61141179  0.41969905    -0.11880
C756        C  0.26585507  0.62247125  0.46879950     0.05130
C757        C  0.23261411  0.61461827  0.00713177    -0.07160
C758        C  0.19320050  0.59573944  0.49582875    -0.07910
C759        C  0.18599653  0.58444288  0.44675453    -0.02460
C760        C  0.21952203  0.59234198  0.40824908     0.04360
N761        N  0.21418977  0.58218858  0.35752626     0.66860
H762        H  0.28465135  0.61755233  0.39009683     0.15760
H763        H  0.16801293  0.58979163  0.02589742     0.15470
N764        N  0.23824130  0.62613047  0.05771956     0.74570
O765        O  0.22986102  0.60864360  0.32946859    -0.38880
O766        O  0.20099264  0.54600749  0.33899756    -0.38830
O767        O  0.21519314  0.64242463  0.08771889    -0.39530
O768        O  0.26277702  0.61585213  0.07355930    -0.39600
C769        C  0.30783325  0.64242121  0.47925317     0.03520
C770        C  0.32506123  0.68407953  0.48500777    -0.12630
C771        C  0.36577382  0.70286777  0.49220106     0.01020
C772        C  0.38883038  0.67964537  0.49486839    -0.11160
C773        C  0.37240185  0.63766766  0.48669037     0.03510
C774        C  0.33157250  0.61942046  0.47958146    -0.10580
H775        H  0.30747053  0.70173589  0.48135519     0.09110
H776        H  0.42043190  0.69428090  0.49959467     0.06640
H777        H  0.31851498  0.58721245  0.47236594     0.06480
C778        C  0.31414048  0.64180990  0.72389216     0.03520
C779        C  0.32802172  0.68344152  0.73689743    -0.12630
C780        C  0.36769441  0.70428204  0.74696055     0.01020
C781        C  0.39019559  0.68257275  0.75572919    -0.11160
C782        C  0.37788964  0.64088143  0.74293839     0.03510
C783        C  0.34055450  0.62130729  0.72448216    -0.10580
H784        H  0.30844468  0.69998675  0.73752822     0.09110
H785        H  0.41754295  0.69878209  0.77139379     0.06640
H786        H  0.33197397  0.58984612  0.71045780     0.06480
C787        C  0.21989355  0.83564858  0.87506303     0.03520
C788        C  0.20118771  0.85677604  0.85734231    -0.12630
C789        C  0.15893031  0.84276380  0.85816545     0.01020
C790        C  0.13603168  0.80432426  0.86986669    -0.11160
C791        C  0.15504726  0.78151277  0.88329346     0.03510
C792        C  0.19605121  0.79823249  0.88905836    -0.10580
H793        H  0.21900566  0.88554943  0.84571959     0.09110
H794        H  0.10351130  0.79245766  0.86975383     0.06640
H795        H  0.20909021  0.78160606  0.90430029     0.06480
C796        C  0.22597337  0.83185138  0.59008985     0.03520
C797        C  0.20053986  0.85389193  0.59243419    -0.12630
C798        C  0.15881795  0.83492730  0.58917635     0.01020
C799        C  0.14334921  0.79275835  0.58284327    -0.11160
C800        C  0.16782800  0.77063667  0.58465268     0.03510
C801        C  0.20933576  0.79026442  0.58697482    -0.10580
H802        H  0.21331846  0.88610198  0.59921078     0.09110
H803        H  0.11181883  0.77679169  0.57902611     0.06640
H804        H  0.22806072  0.77348382  0.58981959     0.06480
C805        C  0.14323096  0.56717183  0.93790177     0.76840
Tb806      Tb  0.46750629  0.94141340  0.92268801     1.80740
O807        O  0.13216296  0.55394799  0.89614223    -0.51180
O808        O  0.06660818  0.58617648  0.87546514    -0.58630
C809        C  0.06594707  0.94642070  0.88470789     0.92660
O810        O  0.45203798  0.87230531  0.90467517    -0.58150
Tb811      Tb  0.06156183  0.53824068  0.92353225     1.78060
O812        O  0.39873970  0.93644386  0.94421832    -0.58650
O813        O  0.00190778  0.54559933  0.97125314    -0.77460
O814        O  0.08174018  0.98386717  0.88535359    -0.76780
O815        O  0.04530107  0.51174086  0.49725020    -0.62040
C816        C  0.46779608  0.53432692  0.95675919     0.92250
O817        O  0.99236657  0.95684022  0.84205666    -0.73990
C818        C  0.38677193  0.91116813  0.90763320     0.75690
C819        C  0.08081693  0.61618252  0.90624169     0.76670
O820        O  0.11363078  0.56512558  0.97221688    -0.59240
O821        O  0.08163557  0.60750638  0.94693532    -0.51180
O822        O  0.48281574  0.96614376  0.00265743    -0.77250
O823        O  0.03869913  0.51836457  0.84677411    -0.61250
C824        C  0.01564312  0.98780702  0.82294824     0.90470
C825        C  0.01452388  0.48849139  0.52107721     0.91690
C826        C  0.44381577  0.86455758  0.94826122     0.76040
O827        O  0.41485220  0.90189507  0.87803968    -0.50570
O828        O  0.44840852  0.89558427  0.97994316    -0.51730
O829        O  0.45391192  0.00091369  0.93046475    -0.64580
O830        O  0.02837278  0.92849132  0.89739503    -0.65710
C831        C  0.14603449  0.56240560  0.69376035     0.76840
Tb832      Tb  0.46544493  0.94010745  0.67168398     1.80740
O833        O  0.13430329  0.53452479  0.65947957    -0.51180
O834        O  0.09864763  0.57949735  0.61058088    -0.58630
C835        C  0.06099217  0.93876667  0.63174762     0.92660
O836        O  0.46667883  0.87718324  0.67695092    -0.58150
Tb837      Tb  0.06720013  0.53513997  0.67043424     1.78060
O838        O  0.39998264  0.94099747  0.67001045    -0.58650
O839        O  0.00847308  0.55032125  0.70588353    -0.77460
O840        O  0.07888363  0.97410237  0.65125888    -0.76780
O841        O  0.04306523  0.51724949  0.74989853    -0.62040
C842        C  0.47005682  0.53515235  0.71599568     0.92250
O843        O  0.98592426  0.96222654  0.59522180    -0.73990
C844        C  0.38848175  0.90947047  0.64029139     0.75690
C845        C  0.09698321  0.61094061  0.63895769     0.76670
O846        O  0.11842126  0.57548131  0.71771082    -0.59240
O847        O  0.07884837  0.60403043  0.68162819    -0.51180
O848        O  0.98935862  0.96055569  0.74800447    -0.77250
O849        O  0.04541593  0.51292291  0.59295064    -0.61250
C850        C  0.01541047  0.98790123  0.57302502     0.90470
C851        C  0.01611700  0.48851455  0.77027573     0.91690
C852        C  0.43667424  0.86840619  0.71076735     0.76040
O853        O  0.41618581  0.89458909  0.62355404    -0.50570
O854        O  0.42216992  0.89602862  0.72643965    -0.51730
O855        O  0.45103518  0.99807150  0.70743968    -0.64580
O856        O  0.02336485  0.92524888  0.62771958    -0.65710
C857        C  0.12741167  0.65665819  0.57432832    -0.11760
C858        C  0.11521443  0.65183179  0.62456776     0.05130
C859        C  0.12073126  0.68637591  0.66043933    -0.07160
C860        C  0.13627560  0.72411817  0.64532708    -0.07910
C861        C  0.14861130  0.72898829  0.59541803    -0.02460
C862        C  0.14476241  0.69484569  0.55900081     0.04360
N863        N  0.15843984  0.69801101  0.50708709     0.66860
H864        H  0.12324264  0.63038386  0.54682586     0.15760
H865        H  0.14049315  0.75031120  0.67317322     0.15470
N866        N  0.11298257  0.68410259  0.71236639     0.74570
O867        O  0.16160680  0.66797149  0.97676313    -0.38880
O868        O  0.16734800  0.73047751  0.49089616    -0.38830
O869        O  0.13127493  0.66718468  0.72936051    -0.39530
O870        O  0.09498419  0.70575464  0.74194831    -0.39600
C871        C  0.27307602  0.87379080  0.64746481    -0.11880
C872        C  0.26819227  0.85291406  0.60011015     0.05130
C873        C  0.30286159  0.85090189  0.56547867    -0.07160
C874        C  0.34160961  0.87004986  0.57991921    -0.07910
C875        C  0.34659914  0.89079217  0.62774226    -0.02460
C876        C  0.31143636  0.89214120  0.66239703     0.04360
N877        N  0.31308356  0.90955173  0.71337641     0.66860
H878        H  0.24613895  0.87410253  0.67395882     0.15760
H879        H  0.36828681  0.86948592  0.55323509     0.15470
N880        N  0.29955790  0.83037982  0.01582094     0.74570
O881        O  0.28393050  0.91995065  0.73881024    -0.38880
O882        O  0.33978865  0.90862221  0.73538091    -0.38830
O883        O  0.26986803  0.82641634  0.99545157    -0.39530
O884        O  0.32790717  0.81858805  0.99071312    -0.39600
C885        C  0.14775026  0.89731397  0.57958763    -0.11880
C886        C  0.13183029  0.85979092  0.59627649     0.05130
C887        C  0.09122840  0.84804968  0.62137805    -0.07160
C888        C  0.06819074  0.87320684  0.62868159    -0.07910
C889        C  0.08498835  0.91138978  0.61462618    -0.02460
C890        C  0.12545743  0.92359382  0.58939092     0.04360
N891        N  0.14445106  0.96218626  0.57322024     0.66860
H892        H  0.17803350  0.90652269  0.55863011     0.15760
H893        H  0.03765754  0.86385755  0.64899950     0.15470
N894        N  0.07325893  0.81188303  0.64258390     0.74570
O895        O  0.18252870  0.97904952  0.56958259    -0.38880
O896        O  0.12387696  0.97827643  0.55896104    -0.38830
O897        O  0.08879919  0.80612682  0.67544451    -0.39530
O898        O  0.03989755  0.78709855  0.63133981    -0.39600
C899        C  0.14807851  0.71144129  0.85529011    -0.11880
C900        C  0.13338461  0.73924503  0.88860683     0.05130
C901        C  0.10021400  0.72631052  0.92607758    -0.07160
C902        C  0.08236391  0.68529372  0.92860944    -0.07910
C903        C  0.09740925  0.65736827  0.89565125    -0.02460
C904        C  0.13156013  0.67055841  0.85863125     0.04360
N905        N  0.15206026  0.64458138  0.82666498     0.66860
H906        H  0.17375529  0.72223933  0.82704431     0.15760
H907        H  0.05757661  0.67504999  0.95804384     0.15470
N908        N  0.08576255  0.75405218  0.96309628     0.74570
O909        O  0.18587131  0.65935334  0.80040226    -0.38880
O910        O  0.13768548  0.60721290  0.82472088    -0.38830
O911        O  0.04964611  0.74316412  0.98537206    -0.39530
O912        O  0.10992325  0.78796807  0.97751731    -0.39600
C913        C  0.27803265  0.89564079  0.89908704    -0.11880
C914        C  0.26325117  0.85431901  0.88259526     0.05130
C915        C  0.28974409  0.83206567  0.87557706    -0.07160
C916        C  0.32920244  0.85148121  0.88681260    -0.07910
C917        C  0.34414704  0.89287562  0.90053145    -0.02460
C918        C  0.31858814  0.91551861  0.90604581     0.04360
N919        N  0.33354594  0.95846771  0.91594995     0.66860
H920        H  0.25807728  0.91298590  0.90569522     0.15760
H921        H  0.34935272  0.83443238  0.88191483     0.15470
N922        N  0.27827428  0.79058074  0.85486987     0.74570
O923        O  0.30955804  0.97709487  0.93740376    -0.38880
O924        O  0.36875527  0.97797699  0.89653676    -0.38830
O925        O  0.25971808  0.77801323  0.81803377    -0.39530
O926        O  0.29097497  0.76743375  0.86945876    -0.39600
C927        C  0.15053928  0.90840209  0.88540105    -0.11880
C928        C  0.13855461  0.87106250  0.85588731     0.05130
C929        C  0.10452220  0.86024153  0.83144892    -0.07160
C930        C  0.08171764  0.88592807  0.84047101    -0.07910
C931        C  0.09293617  0.92242923  0.87185847    -0.02460
C932        C  0.12815839  0.93400627  0.89404890     0.04360
N933        N  0.13950686  0.96956607  0.92923840     0.66860
H934        H  0.17577062  0.91649013  0.90545477     0.15760
H935        H  0.05500440  0.87748395  0.82297607     0.15470
N936        N  0.09303386  0.82386936  0.79743203     0.74570
O937        O  0.17660431  0.98882456  0.93175457    -0.38880
O938        O  0.11299751  0.97772441  0.96318750    -0.38830
O939        O  0.05661577  0.80730569  0.78994042    -0.39530
O940        O  0.11975409  0.81013266  0.77140850    -0.39600
C941        C  0.38318745  0.57729803  0.75598137    -0.11880
C942        C  0.40334919  0.61693250  0.74682830     0.05130
C943        C  0.44657980  0.63043712  0.73782891    -0.07160
C944        C  0.46725698  0.60365424  0.73288494    -0.07910
C945        C  0.44660797  0.56297208  0.73526443    -0.02460
C946        C  0.40389854  0.55014846  0.74953097     0.04360
N947        N  0.38050383  0.50960746  0.75578116     0.66860
H948        H  0.35051371  0.56669448  0.76696350     0.15760
H949        H  0.50009671  0.61481376  0.72364662     0.15470
N950        N  0.47092091  0.67027284  0.73023680     0.74570
O951        O  0.38983930  0.99241929  0.78373037    -0.38880
O952        O  0.34662809  0.99360510  0.74062405    -0.38830
O953        O  0.48417938  0.69458916  0.76702779    -0.39530
O954        O  0.49105153  0.67588460  0.68787461    -0.39600
C955        C  0.36285792  0.77285700  0.75759303    -0.11880
C956        C  0.38663334  0.74790960  0.74314776     0.05130
C957        C  0.42767507  0.76464606  0.72131280    -0.07160
C958        C  0.44385144  0.80492560  0.71574585    -0.07910
C959        C  0.41959922  0.82897185  0.72776139    -0.02460
C960        C  0.37850309  0.81267398  0.74903181     0.04360
N961        N  0.35142258  0.83493599  0.75874384     0.66860
H962        H  0.33158929  0.76139631  0.77483902     0.15760
H963        H  0.47511802  0.81672070  0.69821459     0.15470
N964        N  0.45262871  0.74076589  0.70003400     0.74570
O965        O  0.31820886  0.82048737  0.74188550    -0.38880
O966        O  0.35836537  0.86681819  0.78872608    -0.38830
O967        O  0.44217713  0.71335448  0.66462317    -0.39530
O968        O  0.48858909  0.75261468  0.70896490    -0.39600
C969        C  0.20905188  0.61936746  0.69039082    -0.11880
C970        C  0.18856759  0.58080007  0.70195426     0.05130
C971        C  0.20973400  0.56055171  0.71722422    -0.07160
C972        C  0.25085630  0.58074041  0.72273480    -0.07910
C973        C  0.27192430  0.61984393  0.71118208    -0.02460
C974        C  0.25076875  0.63814341  0.69165501     0.04360
N975        N  0.27128775  0.67411174  0.66970581     0.66860
H976        H  0.19264110  0.63417610  0.67755962     0.15760
H977        H  0.26572177  0.56618924  0.73850470     0.15470
N978        N  0.18997132  0.52052173  0.72913110     0.74570
O979        O  0.30528821  0.67897548  0.64233636    -0.38880
O980        O  0.25364314  0.69905982  0.67318305    -0.38830
O981        O  0.21077763  0.49880796  0.72789615    -0.39530
O982        O  0.15223943  0.50759635  0.74440784    -0.39600
C983        C  0.46035637  0.59697877  0.94826221    -0.11880
C984        C  0.44421043  0.56163211  0.96927381     0.05130
C985        C  0.40491381  0.55173061  0.99758759    -0.07160
C986        C  0.38271149  0.57763922  0.00360514    -0.07910
C987        C  0.39827179  0.61252721  0.98119554    -0.02460
C988        C  0.43749706  0.62184235  0.95242678     0.04360
N989        N  0.45330565  0.65434483  0.92398487     0.66860
H990        H  0.48999412  0.60384148  0.92543797     0.15760
H991        H  0.35296369  0.57057989  0.02614566     0.15470
N992        N  0.38734713  0.51612278  0.02083352     0.74570
O993        O  0.49057208  0.67514775  0.92010550    -0.38880
O994        O  0.43158344  0.65868086  0.89709660    -0.38830
O995        O  0.40960192  0.00212931  0.03547489    -0.39530
O996        O  0.34920743  0.00054387  0.03090030    -0.39600
C997        C  0.41568910  0.81639214  0.50993506    -0.11880
C998        C  0.42804081  0.82313111  0.96038653     0.05130
C999        C  0.42129532  0.78987213  0.92277827    -0.07160
C1000       C  0.40043750  0.75155070  0.93501640    -0.07910
C1001       C  0.38671446  0.74490074  0.98410336    -0.02460
C1002       C  0.39463444  0.77762561  0.52249623     0.04360
N1003       N  0.38093079  0.77244259  0.57370581     0.66860
H1004       H  0.42122134  0.84161159  0.53897223     0.15760
H1005       H  0.39519875  0.72640726  0.90566186     0.15470
N1006       N  0.43503514  0.79419962  0.87174380     0.74570
O1007       O  0.39786899  0.79858722  0.60700093    -0.38880
O1008       O  0.34973222  0.74368398  0.58629706    -0.38830
O1009       O  0.47260710  0.80816038  0.85610019    -0.39530
O1010       O  0.41051305  0.77762457  0.84121387    -0.39600
C1011       C  0.25905007  0.61141181  0.91969909    -0.11880
C1012       C  0.26585507  0.62247125  0.96879954     0.05130
C1013       C  0.23261412  0.61461829  0.50713173    -0.07160
C1014       C  0.19320050  0.59573942  0.99582878    -0.07910
C1015       C  0.18599653  0.58444287  0.94675456    -0.02460
C1016       C  0.21952203  0.59234200  0.90824911     0.04360
N1017       N  0.21418978  0.58218862  0.85752629     0.66860
H1018       H  0.28465135  0.61755237  0.89009687     0.15760
H1019       H  0.16801293  0.58979167  0.52589739     0.15470
N1020       N  0.23824131  0.62613051  0.55771952     0.74570
O1021       O  0.22986102  0.60864365  0.82946864    -0.38880
O1022       O  0.20099267  0.54600753  0.83899757    -0.38830
O1023       O  0.21519316  0.64242468  0.58771884    -0.39530
O1024       O  0.26277703  0.61585216  0.57355927    -0.39600
C1025       C  0.80783325  0.14242120  0.97925319     0.03520
C1026       C  0.82506123  0.18407953  0.98500778    -0.12630
C1027       C  0.86577382  0.20286776  0.99220106     0.01020
C1028       C  0.88883038  0.17964536  0.99486839    -0.11160
C1029       C  0.87240185  0.13766766  0.98669038     0.03510
C1030       C  0.83157249  0.11942046  0.97958147    -0.10580
H1031       H  0.80747052  0.20173588  0.98135520     0.09110
H1032       H  0.92043191  0.19428090  0.99959466     0.06640
H1033       H  0.81851497  0.08721245  0.97236596     0.06480
C1034       C  0.81414047  0.14180989  0.22389216     0.03520
C1035       C  0.82802172  0.18344151  0.23689742    -0.12630
C1036       C  0.86769441  0.20428202  0.24696056     0.01020
C1037       C  0.89019558  0.18257274  0.25572920    -0.11160
C1038       C  0.87788963  0.14088142  0.24293839     0.03510
C1039       C  0.84055450  0.12130728  0.22448216    -0.10580
H1040       H  0.80844468  0.19998674  0.23752822     0.09110
H1041       H  0.91754294  0.19878207  0.27139381     0.06640
H1042       H  0.83197396  0.08984611  0.21045779     0.06480
C1043       C  0.71989357  0.33564860  0.37506299     0.03520
C1044       C  0.70118773  0.35677606  0.35734227    -0.12630
C1045       C  0.65893033  0.34276382  0.35816542     0.01020
C1046       C  0.63603170  0.30432428  0.36986666    -0.11160
C1047       C  0.65504728  0.28151279  0.38329343     0.03510
C1048       C  0.69605124  0.29823252  0.38905833    -0.10580
H1049       H  0.71900568  0.38554945  0.34571955     0.09110
H1050       H  0.60351132  0.29245768  0.36975380     0.06640
H1051       H  0.70909023  0.28160608  0.40430027     0.06480
C1052       C  0.72597336  0.33185138  0.09008987     0.03520
C1053       C  0.70053986  0.35389192  0.09243422    -0.12630
C1054       C  0.65881795  0.33492730  0.08917637     0.01020
C1055       C  0.64334920  0.29275834  0.08284329    -0.11160
C1056       C  0.66782800  0.27063666  0.08465270     0.03510
C1057       C  0.70933575  0.29026442  0.08697484    -0.10580
H1058       H  0.71331845  0.38610198  0.09921081     0.09110
H1059       H  0.61181883  0.27679169  0.07902613     0.06640
H1060       H  0.72806072  0.27348381  0.08981961     0.06480
C1061       C  0.64323095  0.06717183  0.43790177     0.76840
Tb1062     Tb  0.96750631  0.44141341  0.42268801     1.80740
O1063       O  0.63216297  0.05394803  0.39614223    -0.51180
O1064       O  0.56660819  0.08617650  0.37546513    -0.58630
C1065       C  0.56594708  0.44642071  0.38470788     0.92660
O1066       O  0.95203799  0.37230531  0.40467519    -0.58150
Tb1067     Tb  0.56156183  0.03824070  0.42353224     1.78060
O1068       O  0.89873971  0.43644388  0.44421829    -0.58650
O1069       O  0.50190778  0.04559936  0.47125313    -0.77460
O1070       O  0.58174019  0.48386718  0.38535359    -0.76780
O1071       O  0.54530106  0.01174086  0.99725020    -0.62040
C1072       C  0.96779606  0.03432694  0.45675922     0.92250
O1073       O  0.49236660  0.45684022  0.34205666    -0.73990
C1074       C  0.88677195  0.41116814  0.40763317     0.75690
C1075       C  0.58081695  0.11618255  0.40624167     0.76670
O1076       O  0.61363077  0.06512556  0.47221688    -0.59240
O1077       O  0.58163558  0.10750640  0.44693530    -0.51180
O1078       O  0.98281574  0.46614378  0.50265744    -0.77250
O1079       O  0.53869913  0.01836457  0.34677410    -0.61250
C1080       C  0.51564313  0.48780703  0.32294824     0.90470
C1081       C  0.51452387  0.98849139  0.02107721     0.91690
C1082       C  0.94381577  0.36455759  0.44826124     0.76040
O1083       O  0.91485222  0.40189507  0.37803967    -0.50570
O1084       O  0.94840851  0.39558428  0.47994318    -0.51730
O1085       O  0.95391193  0.50091370  0.43046474    -0.64580
O1086       O  0.52837279  0.42849132  0.39739501    -0.65710
C1087       C  0.64603448  0.06240559  0.19376035     0.76840
Tb1088     Tb  0.96544493  0.44010744  0.17168399     1.80740
O1089       O  0.63430330  0.03452480  0.15947954    -0.51180
O1090       O  0.59864763  0.07949735  0.11058089    -0.58630
C1091       C  0.56099216  0.43876666  0.13174763     0.92660
O1092       O  0.96667885  0.37718324  0.17695094    -0.58150
Tb1093     Tb  0.56720013  0.03513996  0.17043424     1.78060
O1094       O  0.89998265  0.44099747  0.17001044    -0.58650
O1095       O  0.50847307  0.05032124  0.20588348    -0.77460
O1096       O  0.57888362  0.47410235  0.15125892    -0.76780
O1097       O  0.54306522  0.01724949  0.24989852    -0.62040
C1098       C  0.97005681  0.03515233  0.21599567     0.92250
O1099       O  0.48592425  0.46222654  0.09522180    -0.73990
C1100       C  0.88848175  0.40947045  0.14029140     0.75690
C1101       C  0.59698321  0.11094060  0.13895770     0.76670
O1102       O  0.61842125  0.07548127  0.21771084    -0.59240
O1103       O  0.57884836  0.10403041  0.18162819    -0.51180
O1104       O  0.48935864  0.46055569  0.24800446    -0.77250
O1105       O  0.54541593  0.01292289  0.09295063    -0.61250
C1106       C  0.51541047  0.48790121  0.07302501     0.90470
C1107       C  0.51611699  0.98851456  0.27027573     0.91690
C1108       C  0.93667425  0.36840618  0.21076736     0.76040
O1109       O  0.91618581  0.39458906  0.12355406    -0.50570
O1110       O  0.92216992  0.39602860  0.22643964    -0.51730
O1111       O  0.95103518  0.49807148  0.20743974    -0.64580
O1112       O  0.52336485  0.42524888  0.12771954    -0.65710
C1113       C  0.62741167  0.15665819  0.07432833    -0.11760
C1114       C  0.61521443  0.15183178  0.12456777     0.05130
C1115       C  0.62073126  0.18637591  0.16043934    -0.07160
C1116       C  0.63627560  0.22411817  0.14532710    -0.07910
C1117       C  0.64861130  0.22898829  0.09541804    -0.02460
C1118       C  0.64476240  0.19484569  0.05900083     0.04360
N1119       N  0.65843983  0.19801101  0.00708711     0.66860
H1120       H  0.62324264  0.13038386  0.04682587     0.15760
H1121       H  0.64049315  0.25031119  0.17317324     0.15470
N1122       N  0.61298257  0.18410258  0.21236640     0.74570
O1123       O  0.66160681  0.16797151  0.47676314    -0.38880
O1124       O  0.66734798  0.23047751  0.99089617    -0.38830
O1125       O  0.63127492  0.16718466  0.22936051    -0.39530
O1126       O  0.59498420  0.20575463  0.24194833    -0.39600
C1127       C  0.77307602  0.37379080  0.14746483    -0.11880
C1128       C  0.76819226  0.35291405  0.10011017     0.05130
C1129       C  0.80286158  0.35090186  0.06547869    -0.07160
C1130       C  0.84160960  0.37004983  0.07991923    -0.07910
C1131       C  0.84659914  0.39079216  0.12774228    -0.02460
C1132       C  0.81143636  0.39214120  0.16239704     0.04360
N1133       N  0.81308356  0.40955173  0.21337642     0.66860
H1134       H  0.74613896  0.37410254  0.17395883     0.15760
H1135       H  0.86828680  0.36948588  0.05323511     0.15470
N1136       N  0.79955791  0.33037987  0.51582093     0.74570
O1137       O  0.78393050  0.41995064  0.23881026    -0.38880
O1138       O  0.83978867  0.40862221  0.23538092    -0.38830
O1139       O  0.76986804  0.32641639  0.49545157    -0.39530
O1140       O  0.82790719  0.31858811  0.49071310    -0.39600
C1141       C  0.64775025  0.39731397  0.07958766    -0.11880
C1142       C  0.63183029  0.35979092  0.09627651     0.05130
C1143       C  0.59122839  0.34804968  0.12137807    -0.07160
C1144       C  0.56819073  0.37320683  0.12868160    -0.07910
C1145       C  0.58498834  0.41138977  0.11462619    -0.02460
C1146       C  0.62545742  0.42359381  0.08939094     0.04360
N1147       N  0.64445106  0.46218625  0.07322027     0.66860
H1148       H  0.67803350  0.40652269  0.05863015     0.15760
H1149       H  0.53765753  0.36385754  0.14899950     0.15470
N1150       N  0.57325892  0.31188302  0.14258391     0.74570
O1151       O  0.68252869  0.47904952  0.06958262    -0.38880
O1152       O  0.62387696  0.47827642  0.05896106    -0.38830
O1153       O  0.58879918  0.30612681  0.17544452    -0.39530
O1154       O  0.53989753  0.28709855  0.13133983    -0.39600
C1155       C  0.64807854  0.21144131  0.35529009    -0.11880
C1156       C  0.63338464  0.23924505  0.38860681     0.05130
C1157       C  0.60021402  0.22631055  0.42607755    -0.07160
C1158       C  0.58236393  0.18529375  0.42860941    -0.07910
C1159       C  0.59740928  0.15736829  0.39565123    -0.02460
C1160       C  0.63156016  0.17055843  0.35863124     0.04360
N1161       N  0.65206030  0.14458140  0.32666497     0.66860
H1162       H  0.67375532  0.22223935  0.32704429     0.15760
H1163       H  0.55757663  0.17505001  0.45804382     0.15470
N1164       N  0.58576258  0.25405221  0.46309626     0.74570
O1165       O  0.68587136  0.15935336  0.30040229    -0.38880
O1166       O  0.63768549  0.10721292  0.32472085    -0.38830
O1167       O  0.54964614  0.24316414  0.48537203    -0.39530
O1168       O  0.60992328  0.28796809  0.47751729    -0.39600
C1169       C  0.77803268  0.39564081  0.39908699    -0.11880
C1170       C  0.76325119  0.35431903  0.38259522     0.05130
C1171       C  0.78974411  0.33206569  0.37557703    -0.07160
C1172       C  0.82920246  0.35148123  0.38681257    -0.07910
C1173       C  0.84414707  0.39287563  0.40053141    -0.02460
C1174       C  0.81858817  0.41551863  0.40604575     0.04360
N1175       N  0.83354598  0.45846773  0.41594987     0.66860
H1176       H  0.75807731  0.41298593  0.40569516     0.15760
H1177       H  0.84935273  0.33443240  0.38191482     0.15470
N1178       N  0.77827430  0.29058076  0.35486985     0.74570
O1179       O  0.80955808  0.47709490  0.43740366    -0.38880
O1180       O  0.86875531  0.47797700  0.39653669    -0.38830
O1181       O  0.75971810  0.27801324  0.31803375    -0.39530
O1182       O  0.79097498  0.26743377  0.36945874    -0.39600
C1183       C  0.65053930  0.40840211  0.38540102    -0.11880
C1184       C  0.63855463  0.37106252  0.35588728     0.05130
C1185       C  0.60452222  0.36024155  0.33144889    -0.07160
C1186       C  0.58171766  0.38592809  0.34047099    -0.07910
C1187       C  0.59293618  0.42242925  0.37185845    -0.02460
C1188       C  0.62815841  0.43400628  0.39404888     0.04360
N1189       N  0.63950687  0.46956609  0.42923839     0.66860
H1190       H  0.67577064  0.41649015  0.40545474     0.15760
H1191       H  0.55500441  0.37748397  0.32297605     0.15470
N1192       N  0.59303387  0.32386937  0.29743201     0.74570
O1193       O  0.67660433  0.48882457  0.43175456    -0.38880
O1194       O  0.61299753  0.47772442  0.46318749    -0.38830
O1195       O  0.55661578  0.30730571  0.28994040    -0.39530
O1196       O  0.61975411  0.31013268  0.27140848    -0.39600
C1197       C  0.88318744  0.07729801  0.25598136    -0.11880
C1198       C  0.90334918  0.11693248  0.24682830     0.05130
C1199       C  0.94657980  0.13043711  0.23782893    -0.07160
C1200       C  0.96725698  0.10365422  0.23288495    -0.07910
C1201       C  0.94660796  0.06297206  0.23526443    -0.02460
C1202       C  0.90389853  0.05014844  0.24953095     0.04360
N1203       N  0.88050381  0.00960744  0.25578110     0.66860
H1204       H  0.85051370  0.06669446  0.26696348     0.15760
H1205       H  0.00009670  0.11481374  0.22364666     0.15470
N1206       N  0.97092091  0.17027283  0.23023685     0.74570
O1207       O  0.88983920  0.49241925  0.28373032    -0.38880
O1208       O  0.84662812  0.49360508  0.24062381    -0.38830
O1209       O  0.98417936  0.19458914  0.26702786    -0.39530
O1210       O  0.99105155  0.17588461  0.18787467    -0.39600
C1211       C  0.86285791  0.27285699  0.25759302    -0.11880
C1212       C  0.88663334  0.24790959  0.24314777     0.05130
C1213       C  0.92767508  0.26464606  0.22131283    -0.07160
C1214       C  0.94385145  0.30492560  0.21574589    -0.07910
C1215       C  0.91959922  0.32897184  0.22776140    -0.02460
C1216       C  0.87850309  0.31267397  0.24903180     0.04360
N1217       N  0.85142258  0.33493597  0.25874379     0.66860
H1218       H  0.83158928  0.26139629  0.27483899     0.15760
H1219       H  0.97511804  0.31672069  0.19821464     0.15470
N1220       N  0.95262872  0.24076589  0.20003405     0.74570
O1221       O  0.81820887  0.32048735  0.24188543    -0.38880
O1222       O  0.85836534  0.36681816  0.28872605    -0.38830
O1223       O  0.94217716  0.21335448  0.16462321    -0.39530
O1224       O  0.98858909  0.25261468  0.20896497    -0.39600
C1225       C  0.70905187  0.11936745  0.19039082    -0.11880
C1226       C  0.68856758  0.08080006  0.20195426     0.05130
C1227       C  0.70973400  0.06055171  0.21722423    -0.07160
C1228       C  0.75085629  0.08074040  0.22273480    -0.07910
C1229       C  0.77192429  0.11984392  0.21118208    -0.02460
C1230       C  0.75076875  0.13814340  0.19165501     0.04360
N1231       N  0.77128775  0.17411173  0.16970581     0.66860
H1232       H  0.69264110  0.13417610  0.17755962     0.15760
H1233       H  0.76572177  0.06618924  0.23850471     0.15470
N1234       N  0.68997131  0.02052173  0.22913111     0.74570
O1235       O  0.80528820  0.17897547  0.14233636    -0.38880
O1236       O  0.75364313  0.19905981  0.17318305    -0.38830
O1237       O  0.71077762  0.99880796  0.22789618    -0.39530
O1238       O  0.65223942  0.00759634  0.24440784    -0.39600
C1239       C  0.96035636  0.09697880  0.44826226    -0.11880
C1240       C  0.94421041  0.06163212  0.46927384     0.05130
C1241       C  0.90491379  0.05173061  0.49758760    -0.07160
C1242       C  0.88271148  0.07763923  0.50360516    -0.07910
C1243       C  0.89827178  0.11252722  0.48119559    -0.02460
C1244       C  0.93749705  0.12184238  0.45242683     0.04360
N1245       N  0.95330564  0.15434486  0.42398494     0.66860
H1246       H  0.98999412  0.10384151  0.42543803     0.15760
H1247       H  0.85296367  0.07057989  0.52614568     0.15470
N1248       N  0.88734711  0.01612278  0.52083352     0.74570
O1249       O  0.99057207  0.17514779  0.42010558    -0.38880
O1250       O  0.93158343  0.15868090  0.39709666    -0.38830
O1251       O  0.90960189  0.50212929  0.53547486    -0.39530
O1252       O  0.84920742  0.50054385  0.53090023    -0.39600
C1253       C  0.91568912  0.31639214  0.00993505    -0.11880
C1254       C  0.92804079  0.32313113  0.46038656     0.05130
C1255       C  0.92129530  0.28987214  0.42277830    -0.07160
C1256       C  0.90043748  0.25155072  0.43501643    -0.07910
C1257       C  0.88671445  0.24490075  0.48410339    -0.02460
C1258       C  0.89463446  0.27762561  0.02249623     0.04360
N1259       N  0.88093083  0.27244259  0.07370581     0.66860
H1260       H  0.92122137  0.34161158  0.03897222     0.15760
H1261       H  0.89519873  0.22640727  0.40566190     0.15470
N1262       N  0.93503511  0.29419962  0.37174383     0.74570
O1263       O  0.89786905  0.29858721  0.10700092    -0.38880
O1264       O  0.84973226  0.24368397  0.08629707    -0.38830
O1265       O  0.97260707  0.30816036  0.35610020    -0.39530
O1266       O  0.91051300  0.27762459  0.34121390    -0.39600
C1267       C  0.75905007  0.11141182  0.41969911    -0.11880
C1268       C  0.76585506  0.12247126  0.46879957     0.05130
C1269       C  0.73261412  0.11461828  0.00713174    -0.07160
C1270       C  0.69320049  0.09573942  0.49582879    -0.07910
C1271       C  0.68599653  0.08444287  0.44675457    -0.02460
C1272       C  0.71952203  0.09234200  0.40824913     0.04360
N1273       N  0.71418978  0.08218862  0.35752631     0.66860
H1274       H  0.78465135  0.11755239  0.39009690     0.15760
H1275       H  0.66801293  0.08979165  0.02589740     0.15470
N1276       N  0.73824130  0.12613049  0.05771953     0.74570
O1277       O  0.72986105  0.10864365  0.32946865    -0.38880
O1278       O  0.70099266  0.04600753  0.33899759    -0.38830
O1279       O  0.71519316  0.14242468  0.08771885    -0.39530
O1280       O  0.76277702  0.11585215  0.07355928    -0.39600
C1281       C  0.80783323  0.14242122  0.47925326     0.03520
C1282       C  0.82506121  0.18407955  0.48500786    -0.12630
C1283       C  0.86577380  0.20286779  0.49220114     0.01020
C1284       C  0.88883036  0.17964538  0.49486847    -0.11160
C1285       C  0.87240183  0.13766767  0.48669045     0.03510
C1286       C  0.83157247  0.11942047  0.47958155    -0.10580
H1287       H  0.80747051  0.20173590  0.48135527     0.09110
H1288       H  0.92043189  0.19428091  0.49959474     0.06640
H1289       H  0.81851495  0.08721247  0.47236603     0.06480
C1290       C  0.81414047  0.14180991  0.72389215     0.03520
C1291       C  0.82802172  0.18344153  0.73689743    -0.12630
C1292       C  0.86769441  0.20428205  0.74696055     0.01020
C1293       C  0.89019559  0.18257276  0.75572918    -0.11160
C1294       C  0.87788964  0.14088144  0.74293837     0.03510
C1295       C  0.84055450  0.12130730  0.72448214    -0.10580
H1296       H  0.80844468  0.19998676  0.73752823     0.09110
H1297       H  0.91754295  0.19878209  0.77139378     0.06640
H1298       H  0.83197397  0.08984613  0.71045777     0.06480
C1299       C  0.71989356  0.33564859  0.87506299     0.03520
C1300       C  0.70118773  0.35677605  0.85734225    -0.12630
C1301       C  0.65893033  0.34276381  0.85816539     0.01020
C1302       C  0.63603170  0.30432427  0.86986662    -0.11160
C1303       C  0.65504727  0.28151278  0.88329340     0.03510
C1304       C  0.69605122  0.29823250  0.88905831    -0.10580
H1305       H  0.71900568  0.38554944  0.84571954     0.09110
H1306       H  0.60351132  0.29245767  0.86975375     0.06640
H1307       H  0.70909021  0.28160607  0.90430026     0.06480
C1308       C  0.72597337  0.33185137  0.59008984     0.03520
C1309       C  0.70053987  0.35389191  0.59243418    -0.12630
C1310       C  0.65881796  0.33492729  0.58917635     0.01020
C1311       C  0.64334921  0.29275834  0.58284328    -0.11160
C1312       C  0.66782800  0.27063666  0.58465268     0.03510
C1313       C  0.70933576  0.29026441  0.58697482    -0.10580
H1314       H  0.71331847  0.38610197  0.59921076     0.09110
H1315       H  0.61181883  0.27679169  0.57902613     0.06640
H1316       H  0.72806072  0.27348380  0.58981958     0.06480
C1317       C  0.64323096  0.06717183  0.93790175     0.76840
Tb1318     Tb  0.96750630  0.44141340  0.92268801     1.80740
O1319       O  0.63216296  0.05394805  0.89614221    -0.51180
O1320       O  0.56660812  0.08617649  0.87546515    -0.58630
C1321       C  0.56594708  0.44642070  0.88470787     0.92660
O1322       O  0.95203799  0.37230531  0.90467517    -0.58150
Tb1323     Tb  0.56156183  0.03824071  0.92353224     1.78060
O1324       O  0.89873970  0.43644386  0.94421832    -0.58650
O1325       O  0.50190778  0.04559936  0.97125313    -0.77460
O1326       O  0.58174020  0.48386718  0.88535363    -0.76780
O1327       O  0.54530107  0.01174082  0.49725018    -0.62040
C1328       C  0.96779608  0.03432692  0.95675919     0.92250
O1329       O  0.49236658  0.45684023  0.84205666    -0.73990
C1330       C  0.88677194  0.41116813  0.90763319     0.75690
C1331       C  0.58081693  0.11618254  0.90624165     0.76670
O1332       O  0.61363078  0.06512554  0.97221687    -0.59240
O1333       O  0.58163562  0.10750641  0.94693527    -0.51180
O1334       O  0.98281570  0.46614382  0.00265746    -0.77250
O1335       O  0.53869915  0.01836456  0.84677409    -0.61250
C1336       C  0.51564313  0.48780702  0.82294823     0.90470
C1337       C  0.51452387  0.98849139  0.52107720     0.91690
C1338       C  0.94381577  0.36455758  0.94826122     0.76040
O1339       O  0.91485221  0.40189508  0.87803967    -0.50570
O1340       O  0.94840851  0.39558427  0.97994317    -0.51730
O1341       O  0.95391195  0.50091370  0.93046468    -0.64580
O1342       O  0.52837278  0.42849131  0.89739495    -0.65710
C1343       C  0.64603448  0.06240559  0.69376036     0.76840
Tb1344     Tb  0.96544493  0.44010746  0.67168399     1.80740
O1345       O  0.63430328  0.03452477  0.65947959    -0.51180
O1346       O  0.59864763  0.07949735  0.61058088    -0.58630
C1347       C  0.56099217  0.43876666  0.63174763     0.92660
O1348       O  0.96667883  0.37718325  0.67695092    -0.58150
Tb1349     Tb  0.56720013  0.03513995  0.67043423     1.78060
O1350       O  0.89998264  0.44099746  0.67001046    -0.58650
O1351       O  0.50847307  0.05032123  0.70588351    -0.77460
O1352       O  0.57888363  0.47410236  0.65125889    -0.76780
O1353       O  0.54306522  0.01724949  0.74989851    -0.62040
C1354       C  0.97005682  0.03515236  0.71599568     0.92250
O1355       O  0.48592425  0.46222654  0.59522180    -0.73990
C1356       C  0.88848175  0.40947045  0.64029140     0.75690
C1357       C  0.59698321  0.11094060  0.63895769     0.76670
O1358       O  0.61842125  0.07548132  0.71771080    -0.59240
O1359       O  0.57884836  0.10403041  0.68162817    -0.51180
O1360       O  0.48935864  0.46055568  0.74800446    -0.77250
O1361       O  0.54541593  0.01292289  0.59295062    -0.61250
C1362       C  0.51541047  0.48790121  0.57302500     0.90470
C1363       C  0.51611700  0.98851455  0.77027572     0.91690
C1364       C  0.93667425  0.36840620  0.71076737     0.76040
O1365       O  0.91618582  0.39458909  0.62355404    -0.50570
O1366       O  0.92216994  0.39602863  0.72643967    -0.51730
O1367       O  0.95103519  0.49807152  0.70743966    -0.64580
O1368       O  0.52336486  0.42524887  0.62771956    -0.65710
C1369       C  0.62741168  0.15665818  0.57432831    -0.11760
C1370       C  0.61521443  0.15183178  0.62456775     0.05130
C1371       C  0.62073124  0.18637590  0.66043932    -0.07160
C1372       C  0.63627558  0.22411816  0.64532708    -0.07910
C1373       C  0.64861130  0.22898828  0.59541803    -0.02460
C1374       C  0.64476242  0.19484569  0.55900081     0.04360
N1375       N  0.65843986  0.19801101  0.50708709     0.66860
H1376       H  0.62324266  0.13038385  0.54682585     0.15760
H1377       H  0.64049312  0.25031119  0.67317322     0.15470
N1378       N  0.61298253  0.18410258  0.71236638     0.74570
O1379       O  0.66160680  0.16797153  0.97676315    -0.38880
O1380       O  0.66734806  0.23047751  0.49089616    -0.38830
O1381       O  0.63127489  0.16718468  0.72936052    -0.39530
O1382       O  0.59498413  0.20575462  0.74194829    -0.39600
C1383       C  0.77307603  0.37379081  0.64746479    -0.11880
C1384       C  0.76819227  0.35291404  0.60011014     0.05130
C1385       C  0.80286160  0.35090183  0.56547868    -0.07160
C1386       C  0.84160961  0.37004980  0.57991923    -0.07910
C1387       C  0.84659914  0.39079215  0.62774227    -0.02460
C1388       C  0.81143636  0.39214120  0.66239701     0.04360
N1389       N  0.81308355  0.40955175  0.71337639     0.66860
H1390       H  0.74613896  0.37410256  0.67395879     0.15760
H1391       H  0.86828682  0.36948583  0.55323513     0.15470
N1392       N  0.79955789  0.33037992  0.01582094     0.74570
O1393       O  0.78393050  0.41995069  0.73881020    -0.38880
O1394       O  0.83978863  0.40862221  0.73538092    -0.38830
O1395       O  0.76986801  0.32641644  0.99545160    -0.39530
O1396       O  0.82790717  0.31858816  0.99071309    -0.39600
C1397       C  0.64775026  0.39731397  0.57958763    -0.11880
C1398       C  0.63183030  0.35979092  0.59627650     0.05130
C1399       C  0.59122841  0.34804968  0.62137807    -0.07160
C1400       C  0.56819075  0.37320683  0.62868162    -0.07910
C1401       C  0.58498835  0.41138977  0.61462619    -0.02460
C1402       C  0.62545743  0.42359381  0.58939092     0.04360
N1403       N  0.64445106  0.46218624  0.57322023     0.66860
H1404       H  0.67803350  0.40652268  0.55863011     0.15760
H1405       H  0.53765756  0.36385755  0.64899953     0.15470
N1406       N  0.57325895  0.31188304  0.64258393     0.74570
O1407       O  0.68252869  0.47904950  0.56958255    -0.38880
O1408       O  0.62387695  0.47827641  0.55896103    -0.38830
O1409       O  0.58879923  0.30612683  0.67544452    -0.39530
O1410       O  0.53989755  0.28709856  0.63133987    -0.39600
C1411       C  0.64807853  0.21144129  0.85529008    -0.11880
C1412       C  0.63338462  0.23924504  0.88860678     0.05130
C1413       C  0.60021398  0.22631053  0.92607750    -0.07160
C1414       C  0.58236389  0.18529374  0.92860936    -0.07910
C1415       C  0.59740924  0.15736828  0.89565120    -0.02460
C1416       C  0.63156014  0.17055842  0.85863123     0.04360
N1417       N  0.65206028  0.14458138  0.82666499     0.66860
H1418       H  0.67375532  0.22223932  0.82704428     0.15760
H1419       H  0.55757657  0.17505001  0.95804376     0.15470
N1420       N  0.58576253  0.25405220  0.96309618     0.74570
O1421       O  0.68587145  0.15935334  0.80040250    -0.38880
O1422       O  0.63768533  0.10721288  0.82472062    -0.38830
O1423       O  0.54964608  0.24316414  0.98537192    -0.39530
O1424       O  0.60992323  0.28796808  0.97751724    -0.39600
C1425       C  0.77803266  0.39564079  0.89908701    -0.11880
C1426       C  0.76325118  0.35431902  0.88259523     0.05130
C1427       C  0.78974410  0.33206568  0.87557704    -0.07160
C1428       C  0.82920245  0.35148122  0.88681259    -0.07910
C1429       C  0.84414705  0.39287562  0.90053144    -0.02460
C1430       C  0.81858815  0.41551861  0.90604579     0.04360
N1431       N  0.83354595  0.45846772  0.91594993     0.66860
H1432       H  0.75807729  0.41298590  0.90569518     0.15760
H1433       H  0.84935272  0.33443239  0.88191483     0.15470
N1434       N  0.77827429  0.29058074  0.85486987     0.74570
O1435       O  0.80955805  0.47709487  0.93740373    -0.38880
O1436       O  0.86875528  0.47797699  0.89653675    -0.38830
O1437       O  0.75971810  0.27801322  0.81803376    -0.39530
O1438       O  0.79097497  0.26743375  0.86945877    -0.39600
C1439       C  0.65053931  0.40840210  0.88540100    -0.11880
C1440       C  0.63855464  0.37106252  0.85588724     0.05130
C1441       C  0.60452222  0.36024154  0.83144885    -0.07160
C1442       C  0.58171766  0.38592809  0.84047095    -0.07910
C1443       C  0.59293618  0.42242924  0.87185843    -0.02460
C1444       C  0.62815841  0.43400627  0.89404886     0.04360
N1445       N  0.63950687  0.46956606  0.92923838     0.66860
H1446       H  0.67577064  0.41649014  0.90545472     0.15760
H1447       H  0.55500442  0.37748397  0.82297602     0.15470
N1448       N  0.59303388  0.32386937  0.79743197     0.74570
O1449       O  0.67660432  0.48882456  0.93175455    -0.38880
O1450       O  0.61299752  0.47772438  0.96318750    -0.38830
O1451       O  0.55661579  0.30730571  0.78994035    -0.39530
O1452       O  0.61975411  0.31013267  0.77140844    -0.39600
C1453       C  0.88318745  0.07729804  0.75598135    -0.11880
C1454       C  0.90334918  0.11693250  0.74682827     0.05130
C1455       C  0.94657980  0.13043713  0.73782888    -0.07160
C1456       C  0.96725698  0.10365425  0.73288491    -0.07910
C1457       C  0.94660797  0.06297209  0.73526443    -0.02460
C1458       C  0.90389854  0.05014847  0.74953098     0.04360
N1459       N  0.88050383  0.00960748  0.75578121     0.66860
H1460       H  0.85051371  0.06669449  0.76696349     0.15760
H1461       H  0.00009671  0.11481376  0.72364659     0.15470
N1462       N  0.97092091  0.17027284  0.73023674     0.74570
O1463       O  0.88983930  0.49241930  0.78373035    -0.38880
O1464       O  0.84662810  0.49360511  0.74062402    -0.38830
O1465       O  0.98417940  0.19458917  0.76702771    -0.39530
O1466       O  0.99105150  0.17588459  0.68787453    -0.39600
C1467       C  0.86285792  0.27285702  0.75759307    -0.11880
C1468       C  0.88663334  0.24790962  0.74314777     0.05130
C1469       C  0.92767507  0.26464607  0.72131280    -0.07160
C1470       C  0.94385144  0.30492561  0.71574586    -0.07910
C1471       C  0.91959922  0.32897187  0.72776141    -0.02460
C1472       C  0.87850310  0.31267400  0.74903184     0.04360
N1473       N  0.85142259  0.33493601  0.75874386     0.66860
H1474       H  0.83158929  0.26139632  0.77483905     0.15760
H1475       H  0.97511802  0.31672070  0.69821458     0.15470
N1476       N  0.95262869  0.24076590  0.70003397     0.74570
O1477       O  0.81820887  0.32048739  0.74188552    -0.38880
O1478       O  0.85836538  0.36681821  0.78872608    -0.38830
O1479       O  0.94217710  0.21335449  0.66462314    -0.39530
O1480       O  0.98858908  0.25261467  0.70896485    -0.39600
C1481       C  0.70905185  0.11936747  0.69039088    -0.11880
C1482       C  0.68856758  0.08080007  0.70195427     0.05130
C1483       C  0.70973401  0.06055171  0.71722419    -0.07160
C1484       C  0.75085630  0.08074041  0.72273476    -0.07910
C1485       C  0.77192429  0.11984394  0.71118208    -0.02460
C1486       C  0.75076873  0.13814343  0.69165505     0.04360
N1487       N  0.77128771  0.17411176  0.66970587     0.66860
H1488       H  0.69264106  0.13417613  0.67755971     0.15760
H1489       H  0.76572179  0.06618924  0.73850464     0.15470
N1490       N  0.68997134  0.02052172  0.72913104     0.74570
O1491       O  0.80528815  0.17897551  0.64233639    -0.38880
O1492       O  0.75364309  0.19905984  0.67318313    -0.38830
O1493       O  0.71077766  0.99880795  0.72789606    -0.39530
O1494       O  0.65223945  0.00759633  0.74440779    -0.39600
C1495       C  0.96035638  0.09697878  0.94826222    -0.11880
C1496       C  0.94421043  0.06163212  0.96927381     0.05130
C1497       C  0.90491381  0.05173061  0.99758758    -0.07160
C1498       C  0.88271150  0.07763923  0.00360512    -0.07910
C1499       C  0.89827180  0.11252721  0.98119553    -0.02460
C1500       C  0.93749707  0.12184236  0.95242677     0.04360
N1501       N  0.95330567  0.15434485  0.92398488     0.66860
H1502       H  0.98999414  0.10384149  0.92543799     0.15760
H1503       H  0.85296368  0.07057989  0.02614563     0.15470
N1504       N  0.88734713  0.01612279  0.02083351     0.74570
O1505       O  0.99057210  0.17514777  0.92010553    -0.38880
O1506       O  0.93158347  0.15868088  0.89709659    -0.38830
O1507       O  0.90960193  0.50212931  0.03547486    -0.39530
O1508       O  0.84920745  0.50054387  0.03090026    -0.39600
C1509       C  0.91568919  0.31639215  0.50993508    -0.11880
C1510       C  0.92804081  0.32313112  0.96038653     0.05130
C1511       C  0.92129542  0.28987213  0.92277826    -0.07160
C1512       C  0.90043759  0.25155070  0.93501638    -0.07910
C1513       C  0.88671446  0.24490074  0.98410333    -0.02460
C1514       C  0.89463455  0.27762562  0.52249628     0.04360
N1515       N  0.88093102  0.27244261  0.57370588     0.66860
H1516       H  0.92122151  0.34161160  0.53897225     0.15760
H1517       H  0.89519891  0.22640726  0.90566185     0.15470
N1518       N  0.93503536  0.29419962  0.87174381     0.74570
O1519       O  0.89786930  0.29858724  0.60700093    -0.38880
O1520       O  0.84973247  0.24368400  0.58629721    -0.38830
O1521       O  0.97260734  0.30816049  0.85610035    -0.39530
O1522       O  0.91051338  0.27762447  0.84121375    -0.39600
C1523       C  0.75905008  0.11141178  0.91969906    -0.11880
C1524       C  0.76585507  0.12247124  0.96879951     0.05130
C1525       C  0.73261410  0.11461827  0.50713179    -0.07160
C1526       C  0.69320050  0.09573943  0.99582875    -0.07910
C1527       C  0.68599653  0.08444286  0.94675453    -0.02460
C1528       C  0.71952203  0.09234197  0.90824908     0.04360
N1529       N  0.71418978  0.08218857  0.85752627     0.66860
H1530       H  0.78465135  0.11755232  0.89009684     0.15760
H1531       H  0.66801291  0.08979163  0.52589743     0.15470
N1532       N  0.73824127  0.12613048  0.55771959     0.74570
O1533       O  0.72986103  0.10864358  0.82946859    -0.38880
O1534       O  0.70099264  0.04600747  0.83899757    -0.38830
O1535       O  0.71519311  0.14242464  0.58771891    -0.39530
O1536       O  0.76277699  0.11585213  0.57355933    -0.39600
C1537       C  0.80783326  0.64242120  0.97925317     0.03520
C1538       C  0.82506124  0.68407953  0.98500777    -0.12630
C1539       C  0.86577383  0.70286776  0.99220104     0.01020
C1540       C  0.88883039  0.67964536  0.99486837    -0.11160
C1541       C  0.87240186  0.63766765  0.98669035     0.03510
C1542       C  0.83157250  0.61942045  0.97958145    -0.10580
H1543       H  0.80747053  0.70173588  0.98135519     0.09110
H1544       H  0.92043192  0.69428089  0.99959464     0.06640
H1545       H  0.81851498  0.58721244  0.97236594     0.06480
C1546       C  0.81414048  0.64180990  0.22389216     0.03520
C1547       C  0.82802172  0.68344151  0.23689743    -0.12630
C1548       C  0.86769441  0.70428203  0.24696057     0.01020
C1549       C  0.89019558  0.68257274  0.25572920    -0.11160
C1550       C  0.87788964  0.64088142  0.24293839     0.03510
C1551       C  0.84055450  0.62130729  0.22448215    -0.10580
H1552       H  0.80844468  0.69998674  0.23752823     0.09110
H1553       H  0.91754294  0.69878208  0.27139382     0.06640
H1554       H  0.83197397  0.58984612  0.21045778     0.06480
C1555       C  0.71989355  0.83564860  0.37506301     0.03520
C1556       C  0.70118771  0.85677605  0.35734228    -0.12630
C1557       C  0.65893031  0.84276381  0.35816544     0.01020
C1558       C  0.63603168  0.80432428  0.36986668    -0.11160
C1559       C  0.65504727  0.78151279  0.38329345     0.03510
C1560       C  0.69605122  0.79823251  0.38905834    -0.10580
H1561       H  0.71900566  0.88554944  0.34571956     0.09110
H1562       H  0.60351130  0.79245767  0.36975383     0.06640
H1563       H  0.70909022  0.78160608  0.40430028     0.06480
C1564       C  0.72597336  0.83185137  0.09008986     0.03520
C1565       C  0.70053986  0.85389192  0.09243421    -0.12630
C1566       C  0.65881794  0.83492729  0.08917636     0.01020
C1567       C  0.64334920  0.79275834  0.08284328    -0.11160
C1568       C  0.66782800  0.77063666  0.08465268     0.03510
C1569       C  0.70933575  0.79026442  0.08697483    -0.10580
H1570       H  0.71331845  0.88610198  0.09921080     0.09110
H1571       H  0.61181882  0.77679169  0.07902612     0.06640
H1572       H  0.72806072  0.77348381  0.08981959     0.06480
C1573       C  0.64323096  0.56717183  0.43790176     0.76840
Tb1574     Tb  0.96750629  0.94141341  0.42268802     1.80740
O1575       O  0.63216296  0.55394801  0.39614222    -0.51180
O1576       O  0.56660817  0.58617650  0.37546515    -0.58630
C1577       C  0.56594707  0.94642071  0.38470789     0.92660
O1578       O  0.95203799  0.87230532  0.40467519    -0.58150
Tb1579     Tb  0.56156183  0.53824070  0.42353224     1.78060
O1580       O  0.89873970  0.93644387  0.44421831    -0.58650
O1581       O  0.50190778  0.54559934  0.47125314    -0.77460
O1582       O  0.58174018  0.98386718  0.38535361    -0.76780
O1583       O  0.54530107  0.51174084  0.99725019    -0.62040
C1584       C  0.96779607  0.53432693  0.45675921     0.92250
O1585       O  0.49236657  0.95684023  0.34205666    -0.73990
C1586       C  0.88677194  0.91116814  0.40763319     0.75690
C1587       C  0.58081693  0.61618254  0.40624169     0.76670
O1588       O  0.61363078  0.56512558  0.47221687    -0.59240
O1589       O  0.58163558  0.60750639  0.44693531    -0.51180
O1590       O  0.98281575  0.96614377  0.50265744    -0.77250
O1591       O  0.53869912  0.51836458  0.34677411    -0.61250
C1592       C  0.51564312  0.98780703  0.32294824     0.90470
C1593       C  0.51452388  0.48849138  0.02107720     0.91690
C1594       C  0.94381576  0.86455759  0.44826124     0.76040
O1595       O  0.91485221  0.90189507  0.37803967    -0.50570
O1596       O  0.94840850  0.89558428  0.47994318    -0.51730
O1597       O  0.95391191  0.00091370  0.43046477    -0.64580
O1598       O  0.52837277  0.92849132  0.39739500    -0.65710
C1599       C  0.64603449  0.56240559  0.19376034     0.76840
Tb1600     Tb  0.96544493  0.94010744  0.17168399     1.80740
O1601       O  0.63430330  0.53452480  0.15947954    -0.51180
O1602       O  0.59864763  0.57949735  0.11058088    -0.58630
C1603       C  0.56099216  0.93876666  0.13174763     0.92660
O1604       O  0.96667886  0.87718325  0.17695096    -0.58150
Tb1605     Tb  0.56720013  0.53513996  0.17043423     1.78060
O1606       O  0.89998265  0.94099747  0.17001044    -0.58650
O1607       O  0.50847308  0.55032124  0.20588348    -0.77460
O1608       O  0.57888361  0.97410235  0.15125891    -0.76780
O1609       O  0.54306522  0.51724950  0.24989852    -0.62040
C1610       C  0.97005682  0.53515233  0.21599567     0.92250
O1611       O  0.48592425  0.96222654  0.09522180    -0.73990
C1612       C  0.88848175  0.90947045  0.14029139     0.75690
C1613       C  0.59698321  0.61094060  0.13895769     0.76670
O1614       O  0.61842126  0.57548129  0.21771082    -0.59240
O1615       O  0.57884836  0.60403041  0.18162818    -0.51180
O1616       O  0.48935862  0.96055569  0.24800447    -0.77250
O1617       O  0.54541594  0.51292289  0.09295063    -0.61250
C1618       C  0.51541046  0.98790122  0.07302501     0.90470
C1619       C  0.51611700  0.48851456  0.27027573     0.91690
C1620       C  0.93667425  0.86840618  0.21076736     0.76040
O1621       O  0.91618580  0.89458906  0.12355406    -0.50570
O1622       O  0.92216990  0.89602859  0.22643963    -0.51730
O1623       O  0.95103518  0.99807148  0.20743974    -0.64580
O1624       O  0.52336484  0.92524887  0.12771955    -0.65710
C1625       C  0.62741167  0.65665818  0.07432831    -0.11760
C1626       C  0.61521443  0.65183178  0.12456776     0.05130
C1627       C  0.62073125  0.68637591  0.16043933    -0.07160
C1628       C  0.63627559  0.72411816  0.14532708    -0.07910
C1629       C  0.64861130  0.72898829  0.09541803    -0.02460
C1630       C  0.64476241  0.69484569  0.05900081     0.04360
N1631       N  0.65843984  0.69801101  0.00708709     0.66860
H1632       H  0.62324265  0.63038385  0.04682585     0.15760
H1633       H  0.64049313  0.75031119  0.17317322     0.15470
N1634       N  0.61298255  0.68410258  0.21236638     0.74570
O1635       O  0.66160681  0.66797151  0.47676313    -0.38880
O1636       O  0.66734800  0.73047751  0.99089616    -0.38830
O1637       O  0.63127490  0.66718467  0.22936051    -0.39530
O1638       O  0.59498416  0.70575463  0.24194830    -0.39600
C1639       C  0.77307602  0.87379080  0.14746482    -0.11880
C1640       C  0.76819226  0.85291405  0.10011016     0.05130
C1641       C  0.80286158  0.85090187  0.06547868    -0.07160
C1642       C  0.84160960  0.87004984  0.07991922    -0.07910
C1643       C  0.84659914  0.89079216  0.12774227    -0.02460
C1644       C  0.81143636  0.89214119  0.16239703     0.04360
N1645       N  0.81308355  0.90955172  0.21337641     0.66860
H1646       H  0.74613895  0.87410253  0.17395882     0.15760
H1647       H  0.86828680  0.86948590  0.05323510     0.15470
N1648       N  0.79955791  0.83037990  0.51582092     0.74570
O1649       O  0.78393049  0.91995064  0.23881025    -0.38880
O1650       O  0.83978866  0.90862221  0.23538091    -0.38830
O1651       O  0.76986803  0.82641641  0.49545157    -0.39530
O1652       O  0.82790719  0.81858814  0.49071308    -0.39600
C1653       C  0.64775025  0.89731397  0.07958765    -0.11880
C1654       C  0.63183028  0.85979091  0.09627650     0.05130
C1655       C  0.59122838  0.84804967  0.12137805    -0.07160
C1656       C  0.56819073  0.87320682  0.12868159    -0.07910
C1657       C  0.58498834  0.91138977  0.11462619    -0.02460
C1658       C  0.62545742  0.92359381  0.08939093     0.04360
N1659       N  0.64445105  0.96218625  0.07322027     0.66860
H1660       H  0.67803350  0.90652269  0.05863014     0.15760
H1661       H  0.53765753  0.86385754  0.14899949     0.15470
N1662       N  0.57325892  0.81188302  0.14258390     0.74570
O1663       O  0.68252869  0.97904952  0.06958263    -0.38880
O1664       O  0.62387696  0.97827643  0.05896106    -0.38830
O1665       O  0.58879917  0.80612680  0.17544450    -0.39530
O1666       O  0.53989752  0.78709854  0.13133982    -0.39600
C1667       C  0.64807851  0.71144130  0.35529011    -0.11880
C1668       C  0.63338462  0.73924505  0.38860683     0.05130
C1669       C  0.60021401  0.72631054  0.42607759    -0.07160
C1670       C  0.58236393  0.68529375  0.42860945    -0.07910
C1671       C  0.59740926  0.65736829  0.39565126    -0.02460
C1672       C  0.63156013  0.67055843  0.35863125     0.04360
N1673       N  0.65206026  0.64458139  0.32666497     0.66860
H1674       H  0.67375529  0.72223934  0.32704429     0.15760
H1675       H  0.55757663  0.67505001  0.45804386     0.15470
N1676       N  0.58576258  0.75405221  0.46309630     0.74570
O1677       O  0.68587131  0.65935335  0.30040225    -0.38880
O1678       O  0.63768546  0.60721291  0.32472086    -0.38830
O1679       O  0.54964615  0.74316414  0.48537210    -0.39530
O1680       O  0.60992328  0.78796810  0.47751731    -0.39600
C1681       C  0.77803266  0.89564080  0.39908700    -0.11880
C1682       C  0.76325118  0.85431903  0.38259523     0.05130
C1683       C  0.78974410  0.83206568  0.37557704    -0.07160
C1684       C  0.82920244  0.85148122  0.38681258    -0.07910
C1685       C  0.84414705  0.89287563  0.40053142    -0.02460
C1686       C  0.81858815  0.91551862  0.40604577     0.04360
N1687       N  0.83354596  0.95846773  0.41594990     0.66860
H1688       H  0.75807729  0.91298592  0.40569517     0.15760
H1689       H  0.84935272  0.83443239  0.38191482     0.15470
N1690       N  0.77827429  0.79058075  0.35486986     0.74570
O1691       O  0.80955806  0.97709489  0.43740369    -0.38880
O1692       O  0.86875529  0.97797700  0.39653671    -0.38830
O1693       O  0.75971809  0.77801324  0.31803375    -0.39530
O1694       O  0.79097497  0.76743376  0.36945874    -0.39600
C1695       C  0.65053929  0.90840210  0.38540104    -0.11880
C1696       C  0.63855462  0.87106252  0.35588729     0.05130
C1697       C  0.60452220  0.86024154  0.33144891    -0.07160
C1698       C  0.58171764  0.88592808  0.34047100    -0.07910
C1699       C  0.59293617  0.92242924  0.37185846    -0.02460
C1700       C  0.62815839  0.93400628  0.39404890     0.04360
N1701       N  0.63950686  0.96956608  0.42923840     0.66860
H1702       H  0.67577062  0.91649014  0.40545476     0.15760
H1703       H  0.55500440  0.87748396  0.32297606     0.15470
N1704       N  0.59303386  0.82386937  0.29743203     0.74570
O1705       O  0.67660431  0.98882457  0.43175458    -0.38880
O1706       O  0.61299751  0.97772441  0.46318750    -0.38830
O1707       O  0.55661577  0.80730570  0.28994041    -0.39530
O1708       O  0.61975409  0.81013267  0.27140850    -0.39600
C1709       C  0.88318744  0.57729801  0.25598135    -0.11880
C1710       C  0.90334918  0.61693249  0.24682830     0.05130
C1711       C  0.94657980  0.63043711  0.23782893    -0.07160
C1712       C  0.96725698  0.60365422  0.23288495    -0.07910
C1713       C  0.94660797  0.56297206  0.23526442    -0.02460
C1714       C  0.90389853  0.55014844  0.24953094     0.04360
N1715       N  0.88050381  0.50960743  0.25578107     0.66860
H1716       H  0.85051370  0.56669446  0.26696347     0.15760
H1717       H  0.00009671  0.61481374  0.22364666     0.15470
N1718       N  0.97092091  0.67027283  0.23023685     0.74570
O1719       O  0.88983921  0.99241925  0.28373033    -0.38880
O1720       O  0.84662811  0.99360508  0.24062385    -0.38830
O1721       O  0.98417936  0.69458914  0.26702786    -0.39530
O1722       O  0.99105156  0.67588461  0.18787467    -0.39600
C1723       C  0.86285792  0.77285699  0.25759304    -0.11880
C1724       C  0.88663335  0.74790960  0.24314778     0.05130
C1725       C  0.92767508  0.76464606  0.22131284    -0.07160
C1726       C  0.94385145  0.80492560  0.21574589    -0.07910
C1727       C  0.91959922  0.82897185  0.22776140    -0.02460
C1728       C  0.87850309  0.81267397  0.24903181     0.04360
N1729       N  0.85142258  0.83493597  0.25874381     0.66860
H1730       H  0.83158928  0.76139630  0.27483902     0.15760
H1731       H  0.97511803  0.81672070  0.19821464     0.15470
N1732       N  0.95262872  0.74076590  0.20003405     0.74570
O1733       O  0.81820887  0.82048735  0.24188545    -0.38880
O1734       O  0.85836534  0.86681816  0.28872606    -0.38830
O1735       O  0.94217716  0.71335449  0.16462322    -0.39530
O1736       O  0.98858910  0.75261469  0.20896497    -0.39600
C1737       C  0.70905187  0.61936746  0.19039082    -0.11880
C1738       C  0.68856759  0.58080006  0.20195425     0.05130
C1739       C  0.70973401  0.56055171  0.21722420    -0.07160
C1740       C  0.75085630  0.58074041  0.22273479    -0.07910
C1741       C  0.77192430  0.61984393  0.21118207    -0.02460
C1742       C  0.75076875  0.63814341  0.19165501     0.04360
N1743       N  0.77128775  0.67411174  0.16970583     0.66860
H1744       H  0.69264110  0.63417611  0.17755963     0.15760
H1745       H  0.76572178  0.56618924  0.23850468     0.15470
N1746       N  0.68997133  0.52052173  0.22913107     0.74570
O1747       O  0.80528820  0.67897549  0.14233637    -0.38880
O1748       O  0.75364313  0.69905982  0.17318307    -0.38830
O1749       O  0.71077763  0.49880795  0.22789612    -0.39530
O1750       O  0.65223943  0.50759634  0.24440781    -0.39600
C1751       C  0.96035637  0.59697879  0.44826225    -0.11880
C1752       C  0.94421042  0.56163212  0.46927383     0.05130
C1753       C  0.90491380  0.55173060  0.49758758    -0.07160
C1754       C  0.88271148  0.57763922  0.50360513    -0.07910
C1755       C  0.89827179  0.61252721  0.48119555    -0.02460
C1756       C  0.93749706  0.62184237  0.45242681     0.04360
N1757       N  0.95330566  0.65434486  0.42398492     0.66860
H1758       H  0.98999413  0.60384150  0.42543802     0.15760
H1759       H  0.85296366  0.57057988  0.52614563     0.15470
N1760       N  0.88734711  0.51612277  0.52083349     0.74570
O1761       O  0.99057209  0.67514779  0.42010559    -0.38880
O1762       O  0.93158347  0.65868090  0.39709663    -0.38830
O1763       O  0.90960190  0.00212930  0.53547489    -0.39530
O1764       O  0.84920742  0.00054386  0.53090027    -0.39600
C1765       C  0.91568910  0.81639213  0.00993505    -0.11880
C1766       C  0.92804080  0.82313112  0.46038655     0.05130
C1767       C  0.92129536  0.78987214  0.42277828    -0.07160
C1768       C  0.90043754  0.75155071  0.43501641    -0.07910
C1769       C  0.88671446  0.74490075  0.48410336    -0.02460
C1770       C  0.89463444  0.77762560  0.02249622     0.04360
N1771       N  0.88093078  0.77244258  0.07370580     0.66860
H1772       H  0.92122133  0.84161158  0.03897222     0.15760
H1773       H  0.89519882  0.72640727  0.40566187     0.15470
N1774       N  0.93503523  0.79419963  0.37174382     0.74570
O1775       O  0.89786897  0.79858721  0.10700092    -0.38880
O1776       O  0.84973220  0.74368397  0.08629704    -0.38830
O1777       O  0.97260720  0.80816043  0.35610027    -0.39530
O1778       O  0.91051318  0.77762455  0.34121384    -0.39600
C1779       C  0.75905007  0.61141182  0.41969907    -0.11880
C1780       C  0.76585507  0.62247125  0.46879952     0.05130
C1781       C  0.73261413  0.61461828  0.00713174    -0.07160
C1782       C  0.69320050  0.59573942  0.49582876    -0.07910
C1783       C  0.68599653  0.58444287  0.44675454    -0.02460
C1784       C  0.71952203  0.59234200  0.40824909     0.04360
N1785       N  0.71418977  0.58218863  0.35752628     0.66860
H1786       H  0.78465135  0.61755238  0.39009686     0.15760
H1787       H  0.66801294  0.58979167  0.02589740     0.15470
N1788       N  0.73824132  0.62613051  0.05771953     0.74570
O1789       O  0.72986102  0.60864366  0.32946863    -0.38880
O1790       O  0.70099266  0.54600754  0.33899755    -0.38830
O1791       O  0.71519317  0.64242468  0.08771885    -0.39530
O1792       O  0.76277704  0.61585217  0.07355927    -0.39600
C1793       C  0.80783324  0.64242121  0.47925321     0.03520
C1794       C  0.82506123  0.68407954  0.48500781    -0.12630
C1795       C  0.86577381  0.70286777  0.49220110     0.01020
C1796       C  0.88883037  0.67964537  0.49486843    -0.11160
C1797       C  0.87240184  0.63766766  0.48669041     0.03510
C1798       C  0.83157248  0.61942046  0.47958150    -0.10580
H1799       H  0.80747052  0.70173589  0.48135522     0.09110
H1800       H  0.92043190  0.69428090  0.49959471     0.06640
H1801       H  0.81851496  0.58721245  0.47236597     0.06480
C1802       C  0.81414048  0.64180991  0.72389214     0.03520
C1803       C  0.82802172  0.68344153  0.73689742    -0.12630
C1804       C  0.86769441  0.70428205  0.74696055     0.01020
C1805       C  0.89019559  0.68257276  0.75572918    -0.11160
C1806       C  0.87788964  0.64088144  0.74293837     0.03510
C1807       C  0.84055451  0.62130731  0.72448214    -0.10580
H1808       H  0.80844468  0.69998676  0.73752821     0.09110
H1809       H  0.91754295  0.69878209  0.77139378     0.06640
H1810       H  0.83197397  0.58984613  0.71045777     0.06480
C1811       C  0.71989355  0.83564859  0.87506299     0.03520
C1812       C  0.70118772  0.85677605  0.85734226    -0.12630
C1813       C  0.65893032  0.84276381  0.85816539     0.01020
C1814       C  0.63603169  0.80432427  0.86986661    -0.11160
C1815       C  0.65504727  0.78151278  0.88329339     0.03510
C1816       C  0.69605121  0.79823250  0.88905831    -0.10580
H1817       H  0.71900567  0.88554945  0.84571955     0.09110
H1818       H  0.60351131  0.79245766  0.86975374     0.06640
H1819       H  0.70909020  0.78160606  0.90430025     0.06480
C1820       C  0.72597337  0.83185137  0.59008984     0.03520
C1821       C  0.70053987  0.85389192  0.59243418    -0.12630
C1822       C  0.65881795  0.83492729  0.58917634     0.01020
C1823       C  0.64334921  0.79275834  0.58284327    -0.11160
C1824       C  0.66782801  0.77063666  0.58465268     0.03510
C1825       C  0.70933576  0.79026441  0.58697481    -0.10580
H1826       H  0.71331846  0.88610197  0.59921076     0.09110
H1827       H  0.61181883  0.77679168  0.57902612     0.06640
H1828       H  0.72806073  0.77348381  0.58981958     0.06480
C1829       C  0.64323096  0.56717183  0.93790175     0.76840
Tb1830     Tb  0.96750629  0.94141340  0.92268802     1.80740
O1831       O  0.63216297  0.55394802  0.89614222    -0.51180
O1832       O  0.56660815  0.58617649  0.87546513    -0.58630
C1833       C  0.56594707  0.94642070  0.88470787     0.92660
O1834       O  0.95203798  0.87230531  0.90467517    -0.58150
Tb1835     Tb  0.56156184  0.53824070  0.92353224     1.78060
O1836       O  0.89873969  0.93644385  0.94421833    -0.58650
O1837       O  0.50190779  0.54559935  0.97125313    -0.77460
O1838       O  0.58174019  0.98386718  0.88535364    -0.76780
O1839       O  0.54530108  0.51174080  0.49725017    -0.62040
C1840       C  0.96779608  0.53432692  0.95675918     0.92250
O1841       O  0.49236656  0.95684023  0.84205666    -0.73990
C1842       C  0.88677193  0.91116813  0.90763320     0.75690
C1843       C  0.58081694  0.61618254  0.90624165     0.76670
O1844       O  0.61363078  0.56512556  0.97221687    -0.59240
O1845       O  0.58163561  0.60750640  0.94693527    -0.51180
O1846       O  0.98281570  0.96614381  0.00265746    -0.77250
O1847       O  0.53869915  0.51836456  0.84677409    -0.61250
C1848       C  0.51564313  0.98780702  0.82294823     0.90470
C1849       C  0.51452388  0.48849138  0.52107720     0.91690
C1850       C  0.94381577  0.86455758  0.94826122     0.76040
O1851       O  0.91485220  0.90189508  0.87803967    -0.50570
O1852       O  0.94840851  0.89558427  0.97994317    -0.51730
O1853       O  0.95391194  0.00091370  0.93046471    -0.64580
O1854       O  0.52837277  0.92849131  0.89739494    -0.65710
C1855       C  0.64603449  0.56240560  0.69376035     0.76840
Tb1856     Tb  0.96544493  0.94010746  0.67168399     1.80740
O1857       O  0.63430329  0.53452478  0.65947957    -0.51180
O1858       O  0.59864763  0.57949735  0.61058087    -0.58630
C1859       C  0.56099217  0.93876666  0.63174762     0.92660
O1860       O  0.96667882  0.87718325  0.67695091    -0.58150
Tb1861     Tb  0.56720013  0.53513996  0.67043423     1.78060
O1862       O  0.89998263  0.94099746  0.67001046    -0.58650
O1863       O  0.50847308  0.55032123  0.70588349    -0.77460
O1864       O  0.57888363  0.97410236  0.65125888    -0.76780
O1865       O  0.54306523  0.51724949  0.74989851    -0.62040
C1866       C  0.97005683  0.53515237  0.71599568     0.92250
O1867       O  0.48592425  0.96222654  0.59522179    -0.73990
C1868       C  0.88848175  0.90947046  0.64029140     0.75690
C1869       C  0.59698321  0.61094060  0.63895768     0.76670
O1870       O  0.61842126  0.57548131  0.71771080    -0.59240
O1871       O  0.57884836  0.60403041  0.68162817    -0.51180
O1872       O  0.48935863  0.96055568  0.74800446    -0.77250
O1873       O  0.54541594  0.51292288  0.59295062    -0.61250
C1874       C  0.51541046  0.98790121  0.57302501     0.90470
C1875       C  0.51611701  0.48851455  0.77027572     0.91690
C1876       C  0.93667425  0.86840620  0.71076736     0.76040
O1877       O  0.91618582  0.89458909  0.62355404    -0.50570
O1878       O  0.92216994  0.89602863  0.72643967    -0.51730
O1879       O  0.95103519  0.99807152  0.70743965    -0.64580
O1880       O  0.52336485  0.92524887  0.62771957    -0.65710
C1881       C  0.62741169  0.65665818  0.57432831    -0.11760
C1882       C  0.61521443  0.65183178  0.62456775     0.05130
C1883       C  0.62073125  0.68637590  0.66043932    -0.07160
C1884       C  0.63627558  0.72411816  0.64532707    -0.07910
C1885       C  0.64861131  0.72898828  0.59541802    -0.02460
C1886       C  0.64476243  0.69484569  0.55900080     0.04360
N1887       N  0.65843987  0.69801101  0.50708709     0.66860
H1888       H  0.62324267  0.63038385  0.54682585     0.15760
H1889       H  0.64049312  0.75031119  0.67317321     0.15470
N1890       N  0.61298254  0.68410258  0.71236638     0.74570
O1891       O  0.66160681  0.66797152  0.97676314    -0.38880
O1892       O  0.66734808  0.73047752  0.49089615    -0.38830
O1893       O  0.63127489  0.66718468  0.72936051    -0.39530
O1894       O  0.59498414  0.70575462  0.74194829    -0.39600
C1895       C  0.77307602  0.87379081  0.64746480    -0.11880
C1896       C  0.76819227  0.85291405  0.60011014     0.05130
C1897       C  0.80286159  0.85090185  0.56547867    -0.07160
C1898       C  0.84160961  0.87004982  0.57991922    -0.07910
C1899       C  0.84659914  0.89079216  0.62774226    -0.02460
C1900       C  0.81143636  0.89214121  0.66239701     0.04360
N1901       N  0.81308355  0.90955175  0.71337639     0.66860
H1902       H  0.74613895  0.87410255  0.67395879     0.15760
H1903       H  0.86828681  0.86948586  0.55323512     0.15470
N1904       N  0.79955789  0.83037993  0.01582092     0.74570
O1905       O  0.78393049  0.91995068  0.73881021    -0.38880
O1906       O  0.83978863  0.90862221  0.73538092    -0.38830
O1907       O  0.76986801  0.82641645  0.99545158    -0.39530
O1908       O  0.82790717  0.81858818  0.99071307    -0.39600
C1909       C  0.64775026  0.89731396  0.57958763    -0.11880
C1910       C  0.63183030  0.85979091  0.59627648     0.05130
C1911       C  0.59122840  0.84804968  0.62137805    -0.07160
C1912       C  0.56819075  0.87320683  0.62868160    -0.07910
C1913       C  0.58498835  0.91138977  0.61462618    -0.02460
C1914       C  0.62545743  0.92359381  0.58939091     0.04360
N1915       N  0.64445106  0.96218624  0.57322023     0.66860
H1916       H  0.67803350  0.90652268  0.55863010     0.15760
H1917       H  0.53765755  0.86385755  0.64899951     0.15470
N1918       N  0.57325894  0.81188303  0.64258391     0.74570
O1919       O  0.68252869  0.97904951  0.56958256    -0.38880
O1920       O  0.62387696  0.97827641  0.55896103    -0.38830
O1921       O  0.58879921  0.80612682  0.67544450    -0.39530
O1922       O  0.53989754  0.78709855  0.63133985    -0.39600
C1923       C  0.64807853  0.71144129  0.85529007    -0.11880
C1924       C  0.63338462  0.73924504  0.88860677     0.05130
C1925       C  0.60021399  0.72631053  0.92607750    -0.07160
C1926       C  0.58236390  0.68529373  0.92860936    -0.07910
C1927       C  0.59740925  0.65736828  0.89565120    -0.02460
C1928       C  0.63156014  0.67055841  0.85863122     0.04360
N1929       N  0.65206029  0.64458138  0.82666498     0.66860
H1930       H  0.67375532  0.72223932  0.82704427     0.15760
H1931       H  0.55757658  0.67505000  0.95804376     0.15470
N1932       N  0.58576254  0.75405219  0.96309618     0.74570
O1933       O  0.68587141  0.65935334  0.80040241    -0.38880
O1934       O  0.63768539  0.60721289  0.82472070    -0.38830
O1935       O  0.54964608  0.74316413  0.98537192    -0.39530
O1936       O  0.60992323  0.78796807  0.97751724    -0.39600
C1937       C  0.77803265  0.89564079  0.89908702    -0.11880
C1938       C  0.76325117  0.85431902  0.88259523     0.05130
C1939       C  0.78974409  0.83206568  0.87557704    -0.07160
C1940       C  0.82920244  0.85148122  0.88681258    -0.07910
C1941       C  0.84414704  0.89287562  0.90053144    -0.02460
C1942       C  0.81858814  0.91551861  0.90604580     0.04360
N1943       N  0.83354594  0.95846772  0.91594995     0.66860
H1944       H  0.75807728  0.91298590  0.90569520     0.15760
H1945       H  0.84935272  0.83443239  0.88191482     0.15470
N1946       N  0.77827428  0.79058075  0.85486986     0.74570
O1947       O  0.80955803  0.97709487  0.93740376    -0.38880
O1948       O  0.86875527  0.97797700  0.89653677    -0.38830
O1949       O  0.75971809  0.77801323  0.81803374    -0.39530
O1950       O  0.79097496  0.76743375  0.86945875    -0.39600
C1951       C  0.65053929  0.90840209  0.88540102    -0.11880
C1952       C  0.63855463  0.87106252  0.85588725     0.05130
C1953       C  0.60452222  0.86024155  0.83144885    -0.07160
C1954       C  0.58171766  0.88592809  0.84047095    -0.07910
C1955       C  0.59293617  0.92242924  0.87185844    -0.02460
C1956       C  0.62815839  0.93400626  0.89404888     0.04360
N1957       N  0.63950684  0.96956605  0.92923841     0.66860
H1958       H  0.67577062  0.91649013  0.90545475     0.15760
H1959       H  0.55500442  0.87748397  0.82297600     0.15470
N1960       N  0.59303388  0.82386938  0.79743196     0.74570
O1961       O  0.67660429  0.98882455  0.93175460    -0.38880
O1962       O  0.61299748  0.97772436  0.96318752    -0.38830
O1963       O  0.55661580  0.80730572  0.78994033    -0.39530
O1964       O  0.61975412  0.81013269  0.77140843    -0.39600
C1965       C  0.88318745  0.57729804  0.75598135    -0.11880
C1966       C  0.90334919  0.61693251  0.74682828     0.05130
C1967       C  0.94657980  0.63043713  0.73782889    -0.07160
C1968       C  0.96725699  0.60365425  0.73288492    -0.07910
C1969       C  0.94660798  0.56297209  0.73526443    -0.02460
C1970       C  0.90389854  0.55014847  0.74953097     0.04360
N1971       N  0.88050383  0.50960747  0.75578117     0.66860
H1972       H  0.85051372  0.56669449  0.76696348     0.15760
H1973       H  0.00009671  0.61481377  0.72364661     0.15470
N1974       N  0.97092091  0.67027285  0.73023676     0.74570
O1975       O  0.88983933  0.99241931  0.78373037    -0.38880
O1976       O  0.84662808  0.99360511  0.74062410    -0.38830
O1977       O  0.98417939  0.69458917  0.76702775    -0.39530
O1978       O  0.99105152  0.67588460  0.68787457    -0.39600
C1979       C  0.86285793  0.77285702  0.75759307    -0.11880
C1980       C  0.88663335  0.74790962  0.74314777     0.05130
C1981       C  0.92767507  0.76464607  0.72131279    -0.07160
C1982       C  0.94385144  0.80492561  0.71574585    -0.07910
C1983       C  0.91959922  0.82897187  0.72776140    -0.02460
C1984       C  0.87850310  0.81267400  0.74903184     0.04360
N1985       N  0.85142259  0.83493600  0.75874385     0.66860
H1986       H  0.83158930  0.76139632  0.77483906     0.15760
H1987       H  0.97511802  0.81672070  0.69821458     0.15470
N1988       N  0.95262870  0.74076590  0.70003397     0.74570
O1989       O  0.81820887  0.82048738  0.74188550    -0.38880
O1990       O  0.85836537  0.86681821  0.78872608    -0.38830
O1991       O  0.94217711  0.71335448  0.66462315    -0.39530
O1992       O  0.98858908  0.75261468  0.70896485    -0.39600
C1993       C  0.70905186  0.61936747  0.69039085    -0.11880
C1994       C  0.68856759  0.58080007  0.70195426     0.05130
C1995       C  0.70973401  0.56055171  0.71722419    -0.07160
C1996       C  0.75085631  0.58074041  0.72273477    -0.07910
C1997       C  0.77192430  0.61984394  0.71118207    -0.02460
C1998       C  0.75076874  0.63814342  0.69165502     0.04360
N1999       N  0.77128773  0.67411175  0.66970583     0.66860
H2000       H  0.69264108  0.63417612  0.67755967     0.15760
H2001       H  0.76572179  0.56618924  0.73850465     0.15470
N2002       N  0.68997134  0.52052173  0.72913105     0.74570
O2003       O  0.80528818  0.67897550  0.64233636    -0.38880
O2004       O  0.75364312  0.69905983  0.67318308    -0.38830
O2005       O  0.71077765  0.49880796  0.72789609    -0.39530
O2006       O  0.65223944  0.50759634  0.74440781    -0.39600
C2007       C  0.96035639  0.59697878  0.94826220    -0.11880
C2008       C  0.94421044  0.56163211  0.96927380     0.05130
C2009       C  0.90491382  0.55173061  0.99758756    -0.07160
C2010       C  0.88271151  0.57763923  0.00360510    -0.07910
C2011       C  0.89827181  0.61252721  0.98119550    -0.02460
C2012       C  0.93749708  0.62184236  0.95242675     0.04360
N2013       N  0.95330568  0.65434484  0.92398486     0.66860
H2014       H  0.98999415  0.60384148  0.92543797     0.15760
H2015       H  0.85296369  0.57057989  0.02614561     0.15470
N2016       N  0.88734714  0.51612278  0.02083349     0.74570
O2017       O  0.99057211  0.67514777  0.92010552    -0.38880
O2018       O  0.93158349  0.65868087  0.89709657    -0.38830
O2019       O  0.90960192  0.00212931  0.03547487    -0.39530
O2020       O  0.84920744  0.00054387  0.03090028    -0.39600
C2021       C  0.91568916  0.81639214  0.50993507    -0.11880
C2022       C  0.92804082  0.82313112  0.96038653     0.05130
C2023       C  0.92129546  0.78987213  0.92277826    -0.07160
C2024       C  0.90043763  0.75155070  0.93501637    -0.07910
C2025       C  0.88671447  0.74490073  0.98410331    -0.02460
C2026       C  0.89463451  0.77762561  0.52249626     0.04360
N2027       N  0.88093093  0.77244260  0.57370585     0.66860
H2028       H  0.92122144  0.84161159  0.53897224     0.15760
H2029       H  0.89519898  0.72640725  0.90566183     0.15470
N2030       N  0.93503545  0.79419962  0.87174381     0.74570
O2031       O  0.89786919  0.79858722  0.60700093    -0.38880
O2032       O  0.84973238  0.74368398  0.58629714    -0.38830
O2033       O  0.97260743  0.80816055  0.85610040    -0.39530
O2034       O  0.91051352  0.77762442  0.84121370    -0.39600
C2035       C  0.75905008  0.61141177  0.91969905    -0.11880
C2036       C  0.76585508  0.62247124  0.96879950     0.05130
C2037       C  0.73261411  0.61461827  0.50713175    -0.07160
C2038       C  0.69320051  0.59573944  0.99582876    -0.07910
C2039       C  0.68599654  0.58444286  0.94675454    -0.02460
C2040       C  0.71952204  0.59234196  0.90824908     0.04360
N2041       N  0.71418978  0.58218856  0.85752627     0.66860
H2042       H  0.78465136  0.61755231  0.89009683     0.15760
H2043       H  0.66801293  0.58979163  0.52589740     0.15470
N2044       N  0.73824130  0.62613047  0.55771955     0.74570
O2045       O  0.72986102  0.60864357  0.82946859    -0.38880
O2046       O  0.70099265  0.54600746  0.83899757    -0.38830
O2047       O  0.71519314  0.64242464  0.58771887    -0.39530
O2048       O  0.76277701  0.61585212  0.57355928    -0.39600
loop_ 
_geom_bond_atom_site_label_1 
_geom_bond_atom_site_label_2 
_geom_bond_distance 
_geom_bond_site_symmetry_2 
_ccdc_geom_bond_type 
C1            C2   1.401       .  A
C1            C6   1.399       .  A
C1          C500   1.473       .  S
C2            C3   1.403       .  A
C2            H7   1.085       .  S
C3            C4   1.404       .  A
C3          C489   1.479       .  S
C4            C5   1.410       .  A
C4            H8   1.083       .  S
C5            C6   1.405       .  A
C5          C475   1.492       .  S
C6            H9   1.084       .  S
C10          C11   1.405       .  A
C10          C15   1.409       .  A
C10         C205   1.508       .  S
C11          C12   1.401       .  A
C11          H16   1.076       .  S
C12          C13   1.405       .  A
C12         C188   1.498       .  S
C13          C14   1.407       .  A
C13          H17   1.074       .  S
C14          C15   1.417       .  A
C14         C174   1.508       .  S
C15          H18   1.081       .  S
C19          C20   1.405       .  A
C19          C24   1.401       .  A
C19         C146   1.490       .  S
C20          C21   1.404       .  A
C20          H25   1.083       .  S
C21          C22   1.404       .  A
C21         C160   1.484       .  S
C22          C23   1.399       .  A
C22          H26   1.083       .  S
C23          C24   1.398       .  A
C23         C132   1.471       .  S
C24          H27   1.083       .  S
C28          C29   1.404       .  A
C28          C33   1.401       .  A
C28         C104   1.481       .  S
C29          C30   1.410       .  A
C29          H34   1.083       .  S
C30          C31   1.415       .  A
C30         C118   1.510       .  S
C31          C32   1.407       .  A
C31          H35   1.080       .  S
C32          C33   1.401       .  A
C32          C93   1.484       .  S
C33          H36   1.085       .  S
C37         C247   1.480       .  S
C37          O52   1.258       .  A
C37          O39   1.259       .  A
Tb38         O60   2.375       .  S
Tb38         O61   2.350       .  S
Tb38         O44   2.352       .  S
Tb38         O54   2.338       .  S
Tb38         O42   2.338       .  S
Tb38         O59   2.338       .  S
Tb38       O1073   2.348       .  S
Tb38       O1086   2.328       .  S
O39         Tb43   2.362       .  S
O40          C51   1.259       .  A
O40         Tb43   2.357       .  S
C41         C163   1.472       .  S
C41          O46   1.268       .  A
C41          O62   1.267       .  A
O42          C58   1.260       .  A
Tb43         O52   2.345       .  S
Tb43         O53   2.344       .  S
Tb43         O55   2.346       .  S
Tb43         O45   2.335       .  S
Tb43        O303   2.334       .  S
Tb43        O558   2.329   1_545  S
O44          C50   1.260       .  A
O45        C1072   1.266   1_455  A
O46        Tb555   2.329       .  S
O47          C57   1.268   1_546  A
O47        Tb299   2.334       .  S
C48         C216   1.474       .  S
C48        O1069   1.266       .  A
C48         O573   1.269       .  A
O49          C56   1.274   1_655  A
O49       Tb1062   2.348       .  S
C50         C149   1.463       .  S
C50          O59   1.258       .  A
C51         C135   1.466       .  S
C51          O53   1.255       .  A
O54        C1849   1.271       .  A
O55         C568   1.272   1_545  A
C56         C595   1.479       .  S
C56         O567   1.272       .  A
C57         C594   1.469       .  S
C57        O1846   1.271   1_455  A
C58         C230   1.489       .  S
C58          O60   1.265       .  A
O61         C560   1.269       .  A
O62       Tb1062   2.328   1_455  S
C63         C202   1.468       .  S
C63          O78   1.257       .  A
C63          O65   1.259       .  A
Tb64         O86   2.346       .  S
Tb64         O87   2.329       .  S
Tb64         O70   2.367       .  S
Tb64         O68   2.346       .  S
Tb64         O85   2.371       .  S
Tb64       O1104   2.351       .  S
Tb64       O1099   2.322       .  S
Tb64       O1112   2.356       .  S
O65         Tb69   2.363       .  S
O66          C77   1.264       .  A
O66         Tb69   2.382       .  S
C67         C121   1.489       .  S
C67          O72   1.272       .  A
C67          O88   1.274       .  A
O68          C84   1.260       .  A
Tb69         O73   2.344       .  S
Tb69         O78   2.353       .  S
Tb69         O79   2.352       .  S
Tb69         O81   2.349       .  S
Tb69         O71   2.331       .  S
Tb69        O584   2.345   1_545  S
O70          C76   1.258       .  A
O71        C1098   1.270   1_455  A
O72        Tb581   2.345       .  S
O73          C83   1.273   1_545  A
C74         C177   1.492       .  S
C74        O1095   1.270       .  A
C74         O599   1.267   1_545  A
O75          C82   1.268   1_655  A
O75       Tb1088   2.322       .  S
C76         C107   1.487       .  S
C76          O85   1.259       .  A
C77          C90   1.494       .  S
C77          O79   1.259       .  A
O80         C595   1.273   1_655  A
O80       Tb1088   2.351       .  S
O81         C594   1.274   1_545  A
C82         C569   1.469       .  S
C82         O593   1.274       .  A
C83         C568   1.479       .  S
C83         O592   1.273   1_455  A
C84         C191   1.476       .  S
C84          O86   1.256       .  A
O87         C586   1.267       .  A
O88       Tb1088   2.356   1_455  S
C89          C90   1.409       .  A
C89          C94   1.416       .  A
C89          H96   1.081       .  S
C90          C91   1.417       .  A
C91          C92   1.400       .  A
C91          N98   1.436       .  S
C92          C93   1.401       .  A
C92          H97   1.085       .  S
C93          C94   1.419       .  A
C94          N95   1.446       .  S
N95         O100   1.262   1_554  A
N95         O355   1.263   1_554  A
N98         O101   1.262       .  A
N98         O102   1.263       .  A
O99         N351   1.263       .  A
C103        C104   1.397       .  A
C103        C108   1.402       .  A
C103        H110   1.084       .  S
C104        C105   1.415       .  A
C105        C106   1.410       .  A
C105        N368   1.443       .  S
C106        C107   1.408       .  A
C106        H111   1.082       .  S
C107        C108   1.423       .  A
C108        N109   1.442       .  S
N109        O113   1.263       .  A
N109        O114   1.259       .  A
N112        C361   1.443       .  S
N112        O115   1.262       .  A
N112        O116   1.263       .  A
C117        C118   1.412       .  A
C117        C122   1.410       .  A
C117        H124   1.082       .  S
C118        C119   1.419       .  A
C119        C120   1.403       .  A
C119        N126   1.429       .  S
C120        C121   1.402       .  A
C120        H125   1.082       .  S
C121        C122   1.417       .  A
C122        N123   1.441       .  S
N123        O127   1.263       .  A
N123        O128   1.262       .  A
N126        O129   1.262       .  A
N126        O130   1.261       .  A
C131        C132   1.400       .  A
C131        C136   1.401       .  A
C131        H138   1.084       .  S
C132        C133   1.410       .  A
C133        C134   1.403       .  A
C133        N140   1.442       .  S
C134        C135   1.405       .  A
C134        H139   1.084       .  S
C135        C136   1.424       .  A
C136        N137   1.452       .  S
N137        O141   1.263       .  A
N137        O142   1.260       .  A
N140        O143   1.263       .  A
N140        O144   1.263       .  A
C145        C146   1.410       .  A
C145        C150   1.400       .  A
C145        H152   1.082       .  S
C146        C147   1.420       .  A
C147        C148   1.400       .  A
C147        N154   1.439       .  S
C148        C149   1.401       .  A
C148        H153   1.085       .  S
C149        C150   1.409       .  A
C150        N151   1.442       .  S
N151        O155   1.263       .  A
N151        O156   1.263       .  A
N154        O157   1.263       .  A
N154        O158   1.263       .  A
C159        C160   1.405       .  A
C159        C164   1.394       .  A
C159        H166   1.084       .  S
C160        C161   1.416       .  A
C161        C162   1.408       .  A
C161        N168   1.440       .  S
C162        C163   1.405       .  A
C162        H167   1.084       .  S
C163        C164   1.412       .  A
C164        N165   1.438       .  S
N165        O169   1.263       .  A
N165        O170   1.262       .  A
N168        O171   1.263       .  A
N168        O172   1.263       .  A
C173        C174   1.407       .  A
C173        C178   1.404       .  A
C173        H180   1.083       .  S
C174        C175   1.422       .  A
C175        C176   1.397       .  A
C175        N182   1.425       .  S
C176        C177   1.401       .  A
C176        H181   1.084       .  S
C177        C178   1.415       .  A
C178        N179   1.431       .  S
N179        O695   1.262   1_545  A
N179        O696   1.261   1_545  A
N182        O185   1.263       .  A
N182        O186   1.262       .  A
O183        N691   1.262       .  A
O184        N691   1.261       .  A
C187        C188   1.408       .  A
C187        C192   1.402       .  A
C187        H194   1.080       .  S
C188        C189   1.418       .  A
C189        C190   1.395       .  A
C189        N196   1.427       .  S
C190        C191   1.395       .  A
C190        H195   1.084       .  S
C191        C192   1.413       .  A
C192        N193   1.430       .  S
N193        O197   1.262       .  A
N193        O198   1.260       .  A
N196        O199   1.263       .  A
N196        O200   1.262       .  A
C201        C202   1.395       .  A
C201        C206   1.400       .  A
C201        H208   1.083       .  S
C202        C203   1.410       .  A
C203        C204   1.409       .  A
C203        N210   1.443       .  S
C204        C205   1.414       .  A
C204        H209   1.081       .  S
C205        C206   1.423       .  A
C206        N207   1.439       .  S
N207        O211   1.263       .  A
N207        O212   1.263       .  A
N210        O213   1.263   1_545  A
N210        O214   1.263       .  A
C215        C216   1.401       .  A
C215        C220   1.402       .  A
C215        H222   1.084       .  S
C216        C217   1.414       .  A
C217        C218   1.407       .  A
C217        N224   1.442       .  S
C218        C219   1.408       .  A
C218        H223   1.083       .  S
C219        C220   1.417       .  A
C219        C261   1.492       .  S
C220        N221   1.437       .  S
N221        O225   1.262       .  A
N221        O226   1.263       .  A
N224        O739   1.262       .  A
N224        O740   1.263       .  A
O227        N736   1.262       .  A
O228        N736   1.263       .  A
C229        C234   1.413       .  A
C229        C486   1.408   1_554  A
C229        H236   1.081       .  S
C230        C231   1.414       .  A
C230        C485   1.408       .  A
C231        C232   1.395       .  A
C231        N238   1.431       .  S
C232        C233   1.398       .  A
C232        H237   1.085       .  S
C233        C490   1.417       .  A
C233        C259   1.479       .  S
C234        C489   1.417   1_554  A
C234        N235   1.441       .  S
N235        O239   1.263       .  A
N235        O240   1.262       .  A
N238        O241   1.262       .  A
N238        O242   1.260       .  A
C243        C244   1.400       .  A
C243        C248   1.403       .  A
C243        H250   1.084       .  S
C244        C501   1.405       .  A
C244        C257   1.473       .  S
C245        C500   1.405   1_554  A
C245        C502   1.397   1_554  A
C245        N252   1.429       .  S
C246        C247   1.403       .  A
C246        C501   1.397       .  A
C246        H507   1.083       .  S
C247        C248   1.415       .  A
C248        N249   1.429       .  S
N249        O253   1.261       .  A
N249        O254   1.262       .  A
H251        C502   1.083   1_554  S
N252        O255   1.261       .  A
N252        O256   1.262       .  A
C257        C258   1.401       .  A
C257        C262   1.399       .  A
C258        C259   1.403       .  A
C258        H263   1.085       .  S
C259        C260   1.404       .  A
C260        C261   1.410       .  A
C260        H264   1.083       .  S
C261        C262   1.405       .  A
C262        H265   1.084       .  S
C266        C267   1.405       .  A
C266        C271   1.409       .  A
C266        C461   1.508       .  S
C267        C268   1.401       .  A
C267        H272   1.076       .  S
C268        C269   1.405       .  A
C268        C444   1.498       .  S
C269        C270   1.407       .  A
C269        H273   1.074       .  S
C270        C271   1.417       .  A
C270        C430   1.508       .  S
C271        H274   1.081       .  S
C275        C276   1.405       .  A
C275        C280   1.401       .  A
C275        C402   1.490       .  S
C276        C277   1.404       .  A
C276        H281   1.083       .  S
C277        C278   1.404       .  A
C277        C416   1.484       .  S
C278        C279   1.399       .  A
C278        H282   1.083       .  S
C279        C280   1.398       .  A
C279        C388   1.471       .  S
C280        H283   1.083       .  S
C284        C285   1.404       .  A
C284        C289   1.401       .  A
C284        C360   1.481       .  S
C285        C286   1.410       .  A
C285        H290   1.083       .  S
C286        C287   1.415       .  A
C286        C374   1.510       .  S
C287        C288   1.407       .  A
C287        H291   1.080       .  S
C288        C289   1.401       .  A
C288        C349   1.484       .  S
C289        H292   1.085       .  S
C293        C503   1.480       .  S
C293        O308   1.258       .  A
C293        O295   1.259       .  A
Tb294       O316   2.375       .  S
Tb294       O317   2.350       .  S
Tb294       O300   2.352       .  S
Tb294       O310   2.338   1_556  S
Tb294      O1329   2.348       .  S
Tb294       O298   2.338       .  S
Tb294      O1342   2.328       .  S
Tb294       O315   2.338       .  S
O295       Tb299   2.362       .  S
O296        C307   1.259       .  A
O296       Tb299   2.357       .  S
C297        C419   1.472       .  S
C297        O302   1.268       .  A
C297        O318   1.267       .  A
O298        C314   1.260       .  A
Tb299       O308   2.345       .  S
Tb299       O814   2.329   1_545  S
Tb299       O309   2.344       .  S
Tb299       O311   2.346       .  S
Tb299       O301   2.335       .  S
O300        C306   1.260       .  A
O301       C1328   1.266   1_455  A
O302       Tb811   2.329       .  S
O303        C313   1.268   1_545  A
C304        C472   1.474       .  S
C304       O1325   1.266       .  A
C304        O829   1.269       .  A
O305        C312   1.274   1_655  A
O305      Tb1318   2.348       .  S
C306        C405   1.463       .  S
C306        O315   1.258       .  A
C307        C391   1.466       .  S
C307        O309   1.255       .  A
O310       C1593   1.271       .  A
O311        C824   1.272   1_545  A
C312        C851   1.479       .  S
C312        O823   1.272       .  A
C313        C850   1.469       .  S
C313       O1590   1.271   1_455  A
C314        C486   1.489       .  S
C314        O316   1.265       .  A
O317        C816   1.269       .  A
O318      Tb1318   2.328   1_455  S
C319        C458   1.468       .  S
C319        O334   1.257       .  A
C319        O321   1.259       .  A
Tb320       O342   2.346       .  S
Tb320       O343   2.329       .  S
Tb320       O326   2.367       .  S
Tb320      O1360   2.351       .  S
Tb320      O1355   2.322       .  S
Tb320       O324   2.346       .  S
Tb320      O1368   2.356       .  S
Tb320       O341   2.371       .  S
O321       Tb325   2.363       .  S
O322        C333   1.264       .  A
O322       Tb325   2.382       .  S
C323        C377   1.489       .  S
C323        O328   1.272       .  A
C323        O344   1.274       .  A
O324        C340   1.260       .  A
Tb325       O329   2.344       .  S
Tb325       O334   2.353       .  S
Tb325       O840   2.345   1_545  S
Tb325       O335   2.352       .  S
Tb325       O337   2.349       .  S
Tb325       O327   2.331       .  S
O326        C332   1.258       .  A
O327       C1354   1.270   1_455  A
O328       Tb837   2.345       .  S
O329        C339   1.273   1_545  A
C330        C433   1.492       .  S
C330       O1351   1.270       .  A
C330        O855   1.267   1_545  A
O331        C338   1.268   1_655  A
O331      Tb1344   2.322       .  S
C332        C363   1.487       .  S
C332        O341   1.259       .  A
C333        C346   1.494       .  S
C333        O335   1.259       .  A
O336        C851   1.273   1_655  A
O336      Tb1344   2.351       .  S
O337        C850   1.274   1_545  A
C338        C825   1.469       .  S
C338        O849   1.274       .  A
C339        C824   1.479       .  S
C339        O848   1.273   1_455  A
C340        C447   1.476       .  S
C340        O342   1.256       .  A
O343        C842   1.267       .  A
O344      Tb1344   2.356   1_455  S
C345        C346   1.409       .  A
C345        C350   1.416       .  A
C345        H352   1.081       .  S
C346        C347   1.417       .  A
C347        C348   1.400       .  A
C347        N354   1.436       .  S
C348        C349   1.401       .  A
C348        H353   1.085       .  S
C349        C350   1.419       .  A
C350        N351   1.446       .  S
N351        O356   1.262       .  A
N354        O357   1.262       .  A
N354        O358   1.263       .  A
C359        C360   1.397       .  A
C359        C364   1.402       .  A
C359        H366   1.084       .  S
C360        C361   1.415       .  A
C361        C362   1.410       .  A
C362        C363   1.408       .  A
C362        H367   1.082       .  S
C363        C364   1.423       .  A
C364        N365   1.442       .  S
N365        O369   1.263       .  A
N365        O370   1.259       .  A
N368        O371   1.262   1_554  A
N368        O372   1.263   1_554  A
C373        C374   1.412       .  A
C373        C378   1.410       .  A
C373        H380   1.082       .  S
C374        C375   1.419       .  A
C375        C376   1.403       .  A
C375        N382   1.429       .  S
C376        C377   1.402       .  A
C376        H381   1.082       .  S
C377        C378   1.417       .  A
C378        N379   1.441       .  S
N379        O383   1.263       .  A
N379        O384   1.262       .  A
N382        O385   1.262       .  A
N382        O386   1.261       .  A
C387        C388   1.400       .  A
C387        C392   1.401       .  A
C387        H394   1.084       .  S
C388        C389   1.410       .  A
C389        C390   1.403       .  A
C389        N396   1.442       .  S
C390        C391   1.405       .  A
C390        H395   1.084       .  S
C391        C392   1.424       .  A
C392        N393   1.452       .  S
N393        O397   1.263       .  A
N393        O398   1.260       .  A
N396        O399   1.263       .  A
N396        O400   1.263       .  A
C401        C402   1.410       .  A
C401        C406   1.400       .  A
C401        H408   1.082       .  S
C402        C403   1.420       .  A
C403        C404   1.400       .  A
C403        N410   1.439       .  S
C404        C405   1.401       .  A
C404        H409   1.085       .  S
C405        C406   1.409       .  A
C406        N407   1.442       .  S
N407        O411   1.263       .  A
N407        O412   1.263       .  A
N410        O413   1.263       .  A
N410        O414   1.263       .  A
C415        C416   1.405       .  A
C415        C420   1.394       .  A
C415        H422   1.084       .  S
C416        C417   1.416       .  A
C417        C418   1.408       .  A
C417        N424   1.440       .  S
C418        C419   1.405       .  A
C418        H423   1.084       .  S
C419        C420   1.412       .  A
C420        N421   1.438       .  S
N421        O425   1.263       .  A
N421        O426   1.262       .  A
N424        O427   1.263       .  A
N424        O428   1.263       .  A
C429        C430   1.407       .  A
C429        C434   1.404       .  A
C429        H436   1.083       .  S
C430        C431   1.422       .  A
C431        C432   1.397       .  A
C431        N438   1.425       .  S
C432        C433   1.401       .  A
C432        H437   1.084       .  S
C433        C434   1.415       .  A
C434        N435   1.431       .  S
N435        O951   1.262   1_545  A
N435        O952   1.261   1_545  A
N438        O441   1.263       .  A
N438        O442   1.262       .  A
O439        N947   1.262       .  A
O440        N947   1.261       .  A
C443        C444   1.408       .  A
C443        C448   1.402       .  A
C443        H450   1.080       .  S
C444        C445   1.418       .  A
C445        C446   1.395       .  A
C445        N452   1.427       .  S
C446        C447   1.395       .  A
C446        H451   1.084       .  S
C447        C448   1.413       .  A
C448        N449   1.430       .  S
N449        O453   1.262       .  A
N449        O454   1.260       .  A
N452        O455   1.263       .  A
N452        O456   1.262       .  A
C457        C458   1.395       .  A
C457        C462   1.400       .  A
C457        H464   1.083       .  S
C458        C459   1.410       .  A
C459        C460   1.409       .  A
C459        N466   1.443       .  S
C460        C461   1.414       .  A
C460        H465   1.081       .  S
C461        C462   1.423       .  A
C462        N463   1.439       .  S
N463        O467   1.263       .  A
N463        O468   1.263       .  A
N466        O469   1.263   1_545  A
N466        O470   1.263       .  A
C471        C472   1.401       .  A
C471        C476   1.402       .  A
C471        H478   1.084       .  S
C472        C473   1.414       .  A
C473        C474   1.407   1_556  A
C473        N480   1.442   1_556  S
C474        C475   1.408   1_554  A
C474        H479   1.083       .  S
C475        C476   1.417       .  A
C476        N477   1.437       .  S
N477        O481   1.262       .  A
N477        O482   1.263       .  A
N480        O995   1.262       .  A
N480        O996   1.263       .  A
O483        N992   1.262       .  A
O484        N992   1.263       .  A
C485        C490   1.413       .  A
C485        H492   1.081       .  S
C486        C487   1.414       .  A
C487        C488   1.395       .  A
C487        N494   1.431       .  S
C488        C489   1.398       .  A
C488        H493   1.085       .  S
C490        N491   1.441       .  S
N491        O495   1.263       .  A
N491        O496   1.262       .  A
N494        O497   1.262       .  A
N494        O498   1.260       .  A
C499        C500   1.400       .  A
C499        C504   1.403       .  A
C499        H506   1.084       .  S
C501        N508   1.429       .  S
C502        C503   1.403       .  A
C503        C504   1.415       .  A
C504        N505   1.429       .  S
N505        O509   1.261       .  A
N505        O510   1.262       .  A
N508        O511   1.261       .  A
N508        O512   1.262       .  A
C513        C514   1.401       .  A
C513        C518   1.399       .  A
C513       C1012   1.473       .  S
C514        C515   1.403       .  A
C514        H519   1.085       .  S
C515        C516   1.404       .  A
C515       C1001   1.479       .  S
C516        C517   1.410       .  A
C516        H520   1.083       .  S
C517        C518   1.405       .  A
C517        C987   1.492       .  S
C518        H521   1.084       .  S
C522        C523   1.405       .  A
C522        C527   1.409       .  A
C522        C717   1.508       .  S
C523        C524   1.401       .  A
C523        H528   1.076       .  S
C524        C525   1.405       .  A
C524        C700   1.498       .  S
C525        C526   1.407       .  A
C525        H529   1.074       .  S
C526        C527   1.417       .  A
C526        C686   1.508       .  S
C527        H530   1.081       .  S
C531        C532   1.405       .  A
C531        C536   1.401       .  A
C531        C658   1.490       .  S
C532        C533   1.404       .  A
C532        H537   1.083       .  S
C533        C534   1.404       .  A
C533        C672   1.484       .  S
C534        C535   1.399       .  A
C534        H538   1.083       .  S
C535        C536   1.398       .  A
C535        C644   1.471       .  S
C536        H539   1.083       .  S
C540        C541   1.404       .  A
C540        C545   1.401       .  A
C540        C616   1.481       .  S
C541        C542   1.410       .  A
C541        H546   1.083       .  S
C542        C543   1.415       .  A
C542        C630   1.510       .  S
C543        C544   1.407       .  A
C543        H547   1.080       .  S
C544        C545   1.401       .  A
C544        C605   1.484       .  S
C545        H548   1.085       .  S
C549        C759   1.480       .  S
C549        O564   1.258       .  A
C549        O551   1.259       .  A
Tb550       O572   2.375       .  S
Tb550       O573   2.350   1_565  S
Tb550       O556   2.352       .  S
Tb550       O566   2.338       .  S
Tb550      O1585   2.348       .  S
Tb550       O554   2.338       .  S
Tb550      O1598   2.328       .  S
Tb550       O571   2.338       .  S
O551       Tb555   2.362       .  S
O552        C563   1.259       .  A
O552       Tb555   2.357       .  S
C553        C675   1.472       .  S
C553        O558   1.268       .  A
C553        O574   1.267       .  A
O554        C570   1.260       .  A
Tb555       O815   2.334       .  S
Tb555       O564   2.345       .  S
Tb555       O565   2.344       .  S
Tb555       O567   2.346       .  S
Tb555       O557   2.335       .  S
O556        C562   1.260       .  A
O557       C1584   1.266   1_455  A
O559        C569   1.268   1_556  A
O559       Tb811   2.334       .  S
C560        C728   1.474       .  S
C560       O1581   1.266       .  A
O561        C568   1.274   1_655  A
O561      Tb1574   2.348       .  S
C562        C661   1.463       .  S
C562        O571   1.258       .  A
C563        C647   1.466       .  S
C563        O565   1.255       .  A
O566       C1337   1.271       .  A
C569       O1334   1.271   1_455  A
C570        C742   1.489       .  S
C570        O572   1.265       .  A
O574      Tb1574   2.328   1_455  S
C575        C714   1.468       .  S
C575        O590   1.257       .  A
C575        O577   1.259       .  A
Tb576       O598   2.346       .  S
Tb576       O599   2.329       .  S
Tb576       O582   2.367       .  S
Tb576      O1616   2.351       .  S
Tb576      O1611   2.322       .  S
Tb576       O580   2.346       .  S
Tb576      O1624   2.356       .  S
Tb576       O597   2.371       .  S
O577       Tb581   2.363       .  S
O578        C589   1.264       .  A
O578       Tb581   2.382       .  S
C579        C633   1.489       .  S
C579        O584   1.272       .  A
C579        O600   1.274       .  A
O580        C596   1.260       .  A
Tb581       O585   2.344       .  S
Tb581       O590   2.353       .  S
Tb581       O591   2.352       .  S
Tb581       O593   2.349       .  S
Tb581       O583   2.331       .  S
O582        C588   1.258       .  A
O583       C1610   1.270   1_455  A
O585        C595   1.273       .  A
C586        C689   1.492       .  S
C586       O1607   1.270       .  A
O587        C594   1.268   1_655  A
O587      Tb1600   2.322       .  S
C588        C619   1.487       .  S
C588        O597   1.259       .  A
C589        C602   1.494       .  S
C589        O591   1.259       .  A
O592      Tb1600   2.351       .  S
C596        C703   1.476       .  S
C596        O598   1.256       .  A
O600      Tb1600   2.356   1_455  S
C601        C602   1.409       .  A
C601        C606   1.416       .  A
C601        H608   1.081       .  S
C602        C603   1.417       .  A
C603        C604   1.400       .  A
C603        N610   1.436       .  S
C604        C605   1.401       .  A
C604        H609   1.085       .  S
C605        C606   1.419       .  A
C606        N607   1.446       .  S
N607        O867   1.263   1_554  A
N607        O612   1.262   1_554  A
N610        O613   1.262       .  A
N610        O614   1.263       .  A
O611        N863   1.263       .  A
C615        C616   1.397       .  A
C615        C620   1.402       .  A
C615        H622   1.084       .  S
C616        C617   1.415       .  A
C617        C618   1.410       .  A
C617        N880   1.443       .  S
C618        C619   1.408       .  A
C618        H623   1.082       .  S
C619        C620   1.423       .  A
C620        N621   1.442       .  S
N621        O625   1.263       .  A
N621        O626   1.259       .  A
N624        C873   1.443       .  S
N624        O627   1.262       .  A
N624        O628   1.263       .  A
C629        C630   1.412       .  A
C629        C634   1.410       .  A
C629        H636   1.082       .  S
C630        C631   1.419       .  A
C631        C632   1.403       .  A
C631        N638   1.429       .  S
C632        C633   1.402       .  A
C632        H637   1.082       .  S
C633        C634   1.417       .  A
C634        N635   1.441       .  S
N635        O639   1.263       .  A
N635        O640   1.262       .  A
N638        O641   1.262       .  A
N638        O642   1.261       .  A
C643        C644   1.400       .  A
C643        C648   1.401       .  A
C643        H650   1.084       .  S
C644        C645   1.410       .  A
C645        C646   1.403       .  A
C645        N652   1.442       .  S
C646        C647   1.405       .  A
C646        H651   1.084       .  S
C647        C648   1.424       .  A
C648        N649   1.452       .  S
N649        O653   1.263       .  A
N649        O654   1.260       .  A
N652        O655   1.263       .  A
N652        O656   1.263       .  A
C657        C658   1.410       .  A
C657        C662   1.400       .  A
C657        H664   1.082       .  S
C658        C659   1.420       .  A
C659        C660   1.400       .  A
C659        N666   1.439       .  S
C660        C661   1.401       .  A
C660        H665   1.085       .  S
C661        C662   1.409       .  A
C662        N663   1.442       .  S
N663        O667   1.263       .  A
N663        O668   1.263       .  A
N666        O669   1.263       .  A
N666        O670   1.263       .  A
C671        C672   1.405       .  A
C671        C676   1.394       .  A
C671        H678   1.084       .  S
C672        C673   1.416       .  A
C673        C674   1.408       .  A
C673        N680   1.440       .  S
C674        C675   1.405       .  A
C674        H679   1.084       .  S
C675        C676   1.412       .  A
C676        N677   1.438       .  S
N677        O681   1.263       .  A
N677        O682   1.262       .  A
N680        O683   1.263       .  A
N680        O684   1.263       .  A
C685        C686   1.407       .  A
C685        C690   1.404       .  A
C685        H692   1.083       .  S
C686        C687   1.422       .  A
C687        C688   1.397       .  A
C687        N694   1.425       .  S
C688        C689   1.401       .  A
C688        H693   1.084       .  S
C689        C690   1.415       .  A
C690        N691   1.431       .  S
N694        O697   1.263       .  A
N694        O698   1.262       .  A
C699        C700   1.408       .  A
C699        C704   1.402       .  A
C699        H706   1.080       .  S
C700        C701   1.418       .  A
C701        C702   1.395       .  A
C701        N708   1.427       .  S
C702        C703   1.395       .  A
C702        H707   1.084       .  S
C703        C704   1.413       .  A
C704        N705   1.430       .  S
N705        O709   1.262       .  A
N705        O710   1.260       .  A
N708        O711   1.263       .  A
N708        O712   1.262       .  A
C713        C714   1.395       .  A
C713        C718   1.400       .  A
C713        H720   1.083       .  S
C714        C715   1.410       .  A
C715        C716   1.409       .  A
C715        N722   1.443       .  S
C716        C717   1.414       .  A
C716        H721   1.081       .  S
C717        C718   1.423       .  A
C718        N719   1.439       .  S
N719        O723   1.263       .  A
N719        O724   1.263       .  A
N722        O725   1.263       .  A
N722        O726   1.263       .  A
C727        C728   1.401       .  A
C727        C732   1.402       .  A
C727        H734   1.084       .  S
C728        C729   1.414       .  A
C729        C730   1.407       .  A
C729        N736   1.442       .  S
C730        C731   1.408       .  A
C730        H735   1.083       .  S
C731        C732   1.417       .  A
C731        C773   1.492       .  S
C732        N733   1.437       .  S
N733        O737   1.262       .  A
N733        O738   1.263       .  A
C741        C998   1.408   1_554  A
C741        C746   1.413       .  A
C741        H748   1.081       .  S
C742        C997   1.408       .  A
C742        C743   1.414       .  A
C743        C744   1.395       .  A
C743        N750   1.431       .  S
C744        C745   1.398       .  A
C744        H749   1.085       .  S
C745       C1002   1.417       .  A
C745        C771   1.479       .  S
C746       C1001   1.417   1_554  A
C746        N747   1.441       .  S
N747        O751   1.263       .  A
N747        O752   1.262       .  A
N750        O753   1.262       .  A
N750        O754   1.260       .  A
C755        C756   1.400       .  A
C755        C760   1.403       .  A
C755        H762   1.084       .  S
C756       C1013   1.405       .  A
C756        C769   1.473       .  S
C757       C1012   1.405   1_554  A
C757       C1014   1.397   1_554  A
C757        N764   1.429       .  S
C758       C1013   1.397       .  A
C758        C759   1.403       .  A
C758       H1019   1.083       .  S
C759        C760   1.415       .  A
C760        N761   1.429       .  S
N761        O765   1.261       .  A
N761        O766   1.262       .  A
H763       C1014   1.083   1_554  S
N764        O767   1.261       .  A
N764        O768   1.262       .  A
C769        C770   1.401       .  A
C769        C774   1.399       .  A
C770        C771   1.403       .  A
C770        H775   1.085       .  S
C771        C772   1.404       .  A
C772        C773   1.410       .  A
C772        H776   1.083       .  S
C773        C774   1.405       .  A
C774        H777   1.084       .  S
C778        C779   1.405       .  A
C778        C783   1.409       .  A
C778        C973   1.508       .  S
C779        C780   1.401       .  A
C779        H784   1.076       .  S
C780        C781   1.405       .  A
C780        C956   1.498       .  S
C781        C782   1.407       .  A
C781        H785   1.074       .  S
C782        C783   1.417       .  A
C782        C942   1.508       .  S
C783        H786   1.081       .  S
C787        C788   1.405       .  A
C787        C792   1.401       .  A
C787        C914   1.490       .  S
C788        C789   1.404       .  A
C788        H793   1.083       .  S
C789        C790   1.404       .  A
C789        C928   1.484       .  S
C790        C791   1.399       .  A
C790        H794   1.083       .  S
C791        C792   1.398       .  A
C791        C900   1.471       .  S
C792        H795   1.083       .  S
C796        C797   1.404       .  A
C796        C801   1.401       .  A
C796        C872   1.481       .  S
C797        C798   1.410       .  A
C797        H802   1.083       .  S
C798        C799   1.415       .  A
C798        C886   1.510       .  S
C799        C800   1.407       .  A
C799        H803   1.080       .  S
C800        C801   1.401       .  A
C800        C861   1.484       .  S
C801        H804   1.085       .  S
C805       C1015   1.480       .  S
C805        O820   1.258       .  A
C805        O807   1.259       .  A
Tb806       O828   2.375       .  S
Tb806       O829   2.350   1_565  S
Tb806       O812   2.352       .  S
Tb806       O822   2.338   1_556  S
Tb806      O1841   2.348       .  S
Tb806       O810   2.338       .  S
Tb806      O1854   2.328       .  S
Tb806       O827   2.338       .  S
O807       Tb811   2.362       .  S
O808        C819   1.259       .  A
O808       Tb811   2.357       .  S
C809        C931   1.472       .  S
C809        O814   1.268       .  A
C809        O830   1.267       .  A
O810        C826   1.260       .  A
Tb811       O820   2.345       .  S
Tb811       O821   2.344       .  S
Tb811       O823   2.346       .  S
Tb811       O813   2.335       .  S
O812        C818   1.260       .  A
O813       C1840   1.266   1_455  A
O815        C825   1.268       .  A
C816        C984   1.474       .  S
C816       O1837   1.266       .  A
O817        C824   1.274   1_655  A
O817      Tb1830   2.348       .  S
C818        C917   1.463       .  S
C818        O827   1.258       .  A
C819        C903   1.466       .  S
C819        O821   1.255       .  A
O822       C1081   1.271       .  A
C825       O1078   1.271   1_455  A
C826        C998   1.489       .  S
C826        O828   1.265       .  A
O830      Tb1830   2.328   1_455  S
C831        C970   1.468       .  S
C831        O846   1.257       .  A
C831        O833   1.259       .  A
Tb832       O854   2.346       .  S
Tb832       O855   2.329       .  S
Tb832       O838   2.367       .  S
Tb832      O1872   2.351       .  S
Tb832      O1867   2.322       .  S
Tb832       O836   2.346       .  S
Tb832      O1880   2.356       .  S
Tb832       O853   2.371       .  S
O833       Tb837   2.363       .  S
O834        C845   1.264       .  A
O834       Tb837   2.382       .  S
C835        C889   1.489       .  S
C835        O840   1.272       .  A
C835        O856   1.274       .  A
O836        C852   1.260       .  A
Tb837       O841   2.344       .  S
Tb837       O846   2.353       .  S
Tb837       O847   2.352       .  S
Tb837       O849   2.349       .  S
Tb837       O839   2.331       .  S
O838        C844   1.258       .  A
O839       C1866   1.270   1_455  A
O841        C851   1.273       .  A
C842        C945   1.492       .  S
C842       O1863   1.270       .  A
O843        C850   1.268   1_655  A
O843      Tb1856   2.322       .  S
C844        C875   1.487       .  S
C844        O853   1.259       .  A
C845        C858   1.494       .  S
C845        O847   1.259       .  A
O848      Tb1856   2.351       .  S
C852        C959   1.476       .  S
C852        O854   1.256       .  A
O856      Tb1856   2.356   1_455  S
C857        C858   1.409       .  A
C857        C862   1.416       .  A
C857        H864   1.081       .  S
C858        C859   1.417       .  A
C859        C860   1.400       .  A
C859        N866   1.436       .  S
C860        C861   1.401       .  A
C860        H865   1.085       .  S
C861        C862   1.419       .  A
C862        N863   1.446       .  S
N863        O868   1.262       .  A
N866        O869   1.262       .  A
N866        O870   1.263       .  A
C871        C872   1.397       .  A
C871        C876   1.402       .  A
C871        H878   1.084       .  S
C872        C873   1.415       .  A
C873        C874   1.410       .  A
C874        C875   1.408       .  A
C874        H879   1.082       .  S
C875        C876   1.423       .  A
C876        N877   1.442       .  S
N877        O881   1.263       .  A
N877        O882   1.259       .  A
N880        O883   1.262   1_554  A
N880        O884   1.263   1_554  A
C885        C886   1.412       .  A
C885        C890   1.410       .  A
C885        H892   1.082       .  S
C886        C887   1.419       .  A
C887        C888   1.403       .  A
C887        N894   1.429       .  S
C888        C889   1.402       .  A
C888        H893   1.082       .  S
C889        C890   1.417       .  A
C890        N891   1.441       .  S
N891        O895   1.263       .  A
N891        O896   1.262       .  A
N894        O897   1.262       .  A
N894        O898   1.261       .  A
C899        C900   1.400       .  A
C899        C904   1.401       .  A
C899        H906   1.084       .  S
C900        C901   1.410       .  A
C901        C902   1.403       .  A
C901        N908   1.442       .  S
C902        C903   1.405       .  A
C902        H907   1.084       .  S
C903        C904   1.424       .  A
C904        N905   1.452       .  S
N905        O909   1.263       .  A
N905        O910   1.260       .  A
N908        O911   1.263       .  A
N908        O912   1.263       .  A
C913        C914   1.410       .  A
C913        C918   1.400       .  A
C913        H920   1.082       .  S
C914        C915   1.420       .  A
C915        C916   1.400       .  A
C915        N922   1.439       .  S
C916        C917   1.401       .  A
C916        H921   1.085       .  S
C917        C918   1.409       .  A
C918        N919   1.442       .  S
N919        O923   1.263       .  A
N919        O924   1.263       .  A
N922        O925   1.263       .  A
N922        O926   1.263       .  A
C927        C928   1.405       .  A
C927        C932   1.394       .  A
C927        H934   1.084       .  S
C928        C929   1.416       .  A
C929        C930   1.408       .  A
C929        N936   1.440       .  S
C930        C931   1.405       .  A
C930        H935   1.084       .  S
C931        C932   1.412       .  A
C932        N933   1.438       .  S
N933        O937   1.263       .  A
N933        O938   1.262       .  A
N936        O939   1.263       .  A
N936        O940   1.263       .  A
C941        C942   1.407       .  A
C941        C946   1.404       .  A
C941        H948   1.083       .  S
C942        C943   1.422       .  A
C943        C944   1.397       .  A
C943        N950   1.425       .  S
C944        C945   1.401       .  A
C944        H949   1.084       .  S
C945        C946   1.415       .  A
C946        N947   1.431       .  S
N950        O953   1.263       .  A
N950        O954   1.262       .  A
C955        C956   1.408       .  A
C955        C960   1.402       .  A
C955        H962   1.080       .  S
C956        C957   1.418       .  A
C957        C958   1.395       .  A
C957        N964   1.427       .  S
C958        C959   1.395       .  A
C958        H963   1.084       .  S
C959        C960   1.413       .  A
C960        N961   1.430       .  S
N961        O965   1.262       .  A
N961        O966   1.260       .  A
N964        O967   1.263       .  A
N964        O968   1.262       .  A
C969        C970   1.395       .  A
C969        C974   1.400       .  A
C969        H976   1.083       .  S
C970        C971   1.410       .  A
C971        C972   1.409       .  A
C971        N978   1.443       .  S
C972        C973   1.414       .  A
C972        H977   1.081       .  S
C973        C974   1.423       .  A
C974        N975   1.439       .  S
N975        O979   1.263       .  A
N975        O980   1.263       .  A
N978        O981   1.263       .  A
N978        O982   1.263       .  A
C983        C984   1.401       .  A
C983        C988   1.402       .  A
C983        H990   1.084       .  S
C984        C985   1.414       .  A
C985        C986   1.407   1_556  A
C985        N992   1.442   1_556  S
C986        C987   1.408   1_554  A
C986        H991   1.083       .  S
C987        C988   1.417       .  A
C988        N989   1.437       .  S
N989        O993   1.262       .  A
N989        O994   1.263       .  A
C997       C1002   1.413       .  A
C997       H1004   1.081       .  S
C998        C999   1.414       .  A
C999       C1000   1.395       .  A
C999       N1006   1.431       .  S
C1000      C1001   1.398       .  A
C1000      H1005   1.085       .  S
C1002      N1003   1.441       .  S
N1003      O1007   1.263       .  A
N1003      O1008   1.262       .  A
N1006      O1009   1.262       .  A
N1006      O1010   1.260       .  A
C1011      C1012   1.400       .  A
C1011      C1016   1.403       .  A
C1011      H1018   1.084       .  S
C1013      N1020   1.429       .  S
C1014      C1015   1.403       .  A
C1015      C1016   1.415       .  A
C1016      N1017   1.429       .  S
N1017      O1021   1.261       .  A
N1017      O1022   1.262       .  A
N1020      O1023   1.261       .  A
N1020      O1024   1.262       .  A
C1025      C1026   1.401       .  A
C1025      C1030   1.399       .  A
C1025      C1524   1.473       .  S
C1026      C1027   1.403       .  A
C1026      H1031   1.085       .  S
C1027      C1028   1.404       .  A
C1027      C1513   1.479       .  S
C1028      C1029   1.410       .  A
C1028      H1032   1.083       .  S
C1029      C1030   1.405       .  A
C1029      C1499   1.492       .  S
C1030      H1033   1.084       .  S
C1034      C1035   1.405       .  A
C1034      C1039   1.409       .  A
C1034      C1229   1.508       .  S
C1035      C1036   1.401       .  A
C1035      H1040   1.076       .  S
C1036      C1037   1.405       .  A
C1036      C1212   1.498       .  S
C1037      C1038   1.407       .  A
C1037      H1041   1.074       .  S
C1038      C1039   1.417       .  A
C1038      C1198   1.508       .  S
C1039      H1042   1.081       .  S
C1043      C1044   1.405       .  A
C1043      C1048   1.401       .  A
C1043      C1170   1.490       .  S
C1044      C1045   1.404       .  A
C1044      H1049   1.083       .  S
C1045      C1046   1.404       .  A
C1045      C1184   1.484       .  S
C1046      C1047   1.399       .  A
C1046      H1050   1.083       .  S
C1047      C1048   1.398       .  A
C1047      C1156   1.471       .  S
C1048      H1051   1.083       .  S
C1052      C1053   1.404       .  A
C1052      C1057   1.401       .  A
C1052      C1128   1.481       .  S
C1053      C1054   1.410       .  A
C1053      H1058   1.083       .  S
C1054      C1055   1.415       .  A
C1054      C1142   1.510       .  S
C1055      C1056   1.407       .  A
C1055      H1059   1.080       .  S
C1056      C1057   1.401       .  A
C1056      C1117   1.484       .  S
C1057      H1060   1.085       .  S
C1061      C1271   1.480       .  S
C1061      O1076   1.258       .  A
C1061      O1063   1.259       .  A
Tb1062     O1084   2.375       .  S
Tb1062     O1085   2.350       .  S
Tb1062     O1068   2.352       .  S
Tb1062     O1078   2.338       .  S
Tb1062     O1066   2.338       .  S
Tb1062     O1083   2.338       .  S
O1063     Tb1067   2.362       .  S
O1064      C1075   1.259       .  A
O1064     Tb1067   2.357       .  S
C1065      C1187   1.472       .  S
C1065      O1070   1.268       .  A
C1065      O1086   1.267       .  A
O1066      C1082   1.260       .  A
Tb1067     O1327   2.334       .  S
Tb1067     O1076   2.345       .  S
Tb1067     O1582   2.329   1_545  S
Tb1067     O1077   2.344       .  S
Tb1067     O1079   2.346       .  S
Tb1067     O1069   2.335       .  S
O1068      C1074   1.260       .  A
O1070     Tb1579   2.329       .  S
O1071      C1081   1.268   1_546  A
O1071     Tb1323   2.334       .  S
C1072      C1240   1.474       .  S
C1072      O1597   1.269       .  A
O1073      C1080   1.274       .  A
C1074      C1173   1.463       .  S
C1074      O1083   1.258       .  A
C1075      C1159   1.466       .  S
C1075      O1077   1.255       .  A
O1079      C1592   1.272   1_545  A
C1080      C1619   1.479       .  S
C1080      O1591   1.272       .  A
C1081      C1618   1.469       .  S
C1082      C1254   1.489       .  S
C1082      O1084   1.265       .  A
O1085      C1584   1.269       .  A
C1087      C1226   1.468       .  S
C1087      O1102   1.257       .  A
C1087      O1089   1.259       .  A
Tb1088     O1110   2.346       .  S
Tb1088     O1111   2.329       .  S
Tb1088     O1094   2.367       .  S
Tb1088     O1092   2.346       .  S
Tb1088     O1109   2.371       .  S
O1089     Tb1093   2.363       .  S
O1090      C1101   1.264       .  A
O1090     Tb1093   2.382       .  S
C1091      C1145   1.489       .  S
C1091      O1096   1.272       .  A
C1091      O1112   1.274       .  A
O1092      C1108   1.260       .  A
Tb1093     O1097   2.344       .  S
Tb1093     O1102   2.353       .  S
Tb1093     O1608   2.345   1_545  S
Tb1093     O1103   2.352       .  S
Tb1093     O1105   2.349       .  S
Tb1093     O1095   2.331       .  S
O1094      C1100   1.258       .  A
O1096     Tb1605   2.345       .  S
O1097      C1107   1.273   1_545  A
C1098      C1201   1.492       .  S
C1098      O1623   1.267   1_545  A
O1099      C1106   1.268       .  A
C1100      C1131   1.487       .  S
C1100      O1109   1.259       .  A
C1101      C1114   1.494       .  S
C1101      O1103   1.259       .  A
O1104      C1619   1.273       .  A
O1105      C1618   1.274   1_545  A
C1106      C1593   1.469       .  S
C1106      O1617   1.274       .  A
C1107      C1592   1.479       .  S
C1107      O1616   1.273       .  A
C1108      C1215   1.476       .  S
C1108      O1110   1.256       .  A
O1111      C1610   1.267       .  A
C1113      C1114   1.409       .  A
C1113      C1118   1.416       .  A
C1113      H1120   1.081       .  S
C1114      C1115   1.417       .  A
C1115      C1116   1.400       .  A
C1115      N1122   1.436       .  S
C1116      C1117   1.401       .  A
C1116      H1121   1.085       .  S
C1117      C1118   1.419       .  A
C1118      N1119   1.446       .  S
N1119      O1379   1.263   1_554  A
N1119      O1124   1.262   1_554  A
N1122      O1125   1.262       .  A
N1122      O1126   1.263       .  A
O1123      N1375   1.263       .  A
C1127      C1128   1.397       .  A
C1127      C1132   1.402       .  A
C1127      H1134   1.084       .  S
C1128      C1129   1.415       .  A
C1129      C1130   1.410       .  A
C1129      N1392   1.443       .  S
C1130      C1131   1.408       .  A
C1130      H1135   1.082       .  S
C1131      C1132   1.423       .  A
C1132      N1133   1.442       .  S
N1133      O1137   1.263       .  A
N1133      O1138   1.259       .  A
N1136      C1385   1.443       .  S
N1136      O1139   1.262       .  A
N1136      O1140   1.263       .  A
C1141      C1142   1.412       .  A
C1141      C1146   1.410       .  A
C1141      H1148   1.082       .  S
C1142      C1143   1.419       .  A
C1143      C1144   1.403       .  A
C1143      N1150   1.429       .  S
C1144      C1145   1.402       .  A
C1144      H1149   1.082       .  S
C1145      C1146   1.417       .  A
C1146      N1147   1.441       .  S
N1147      O1151   1.263       .  A
N1147      O1152   1.262       .  A
N1150      O1153   1.262       .  A
N1150      O1154   1.261       .  A
C1155      C1156   1.400       .  A
C1155      C1160   1.401       .  A
C1155      H1162   1.084       .  S
C1156      C1157   1.410       .  A
C1157      C1158   1.403       .  A
C1157      N1164   1.442       .  S
C1158      C1159   1.405       .  A
C1158      H1163   1.084       .  S
C1159      C1160   1.424       .  A
C1160      N1161   1.452       .  S
N1161      O1165   1.263       .  A
N1161      O1166   1.260       .  A
N1164      O1167   1.263       .  A
N1164      O1168   1.263       .  A
C1169      C1170   1.410       .  A
C1169      C1174   1.400       .  A
C1169      H1176   1.082       .  S
C1170      C1171   1.420       .  A
C1171      C1172   1.400       .  A
C1171      N1178   1.439       .  S
C1172      C1173   1.401       .  A
C1172      H1177   1.085       .  S
C1173      C1174   1.409       .  A
C1174      N1175   1.442       .  S
N1175      O1179   1.263       .  A
N1175      O1180   1.263       .  A
N1178      O1181   1.263       .  A
N1178      O1182   1.263       .  A
C1183      C1184   1.405       .  A
C1183      C1188   1.394       .  A
C1183      H1190   1.084       .  S
C1184      C1185   1.416       .  A
C1185      C1186   1.408       .  A
C1185      N1192   1.440       .  S
C1186      C1187   1.405       .  A
C1186      H1191   1.084       .  S
C1187      C1188   1.412       .  A
C1188      N1189   1.438       .  S
N1189      O1193   1.263       .  A
N1189      O1194   1.262       .  A
N1192      O1195   1.263       .  A
N1192      O1196   1.263       .  A
C1197      C1198   1.407       .  A
C1197      C1202   1.404       .  A
C1197      H1204   1.083       .  S
C1198      C1199   1.422       .  A
C1199      C1200   1.397       .  A
C1199      N1206   1.425       .  S
C1200      C1201   1.401       .  A
C1200      H1205   1.084   1_655  S
C1201      C1202   1.415       .  A
C1202      N1203   1.431       .  S
N1203      O1719   1.262   1_545  A
N1203      O1720   1.261   1_545  A
N1206      O1209   1.263       .  A
N1206      O1210   1.262       .  A
O1207      N1715   1.262       .  A
O1208      N1715   1.261       .  A
C1211      C1212   1.408       .  A
C1211      C1216   1.402       .  A
C1211      H1218   1.080       .  S
C1212      C1213   1.418       .  A
C1213      C1214   1.395       .  A
C1213      N1220   1.427       .  S
C1214      C1215   1.395       .  A
C1214      H1219   1.084       .  S
C1215      C1216   1.413       .  A
C1216      N1217   1.430       .  S
N1217      O1221   1.262       .  A
N1217      O1222   1.260       .  A
N1220      O1223   1.263       .  A
N1220      O1224   1.262       .  A
C1225      C1226   1.395       .  A
C1225      C1230   1.400       .  A
C1225      H1232   1.083       .  S
C1226      C1227   1.410       .  A
C1227      C1228   1.409       .  A
C1227      N1234   1.443       .  S
C1228      C1229   1.414       .  A
C1228      H1233   1.081       .  S
C1229      C1230   1.423       .  A
C1230      N1231   1.439       .  S
N1231      O1235   1.263       .  A
N1231      O1236   1.263       .  A
N1234      O1237   1.263   1_545  A
N1234      O1238   1.263       .  A
C1239      C1240   1.401       .  A
C1239      C1244   1.402       .  A
C1239      H1246   1.084       .  S
C1240      C1241   1.414       .  A
C1241      C1242   1.407       .  A
C1241      N1248   1.442       .  S
C1242      C1243   1.408       .  A
C1242      H1247   1.083       .  S
C1243      C1244   1.417       .  A
C1243      C1285   1.492       .  S
C1244      N1245   1.437       .  S
N1245      O1249   1.262       .  A
N1245      O1250   1.263       .  A
N1248      O1763   1.262       .  A
N1248      O1764   1.263       .  A
O1251      N1760   1.262       .  A
O1252      N1760   1.263       .  A
C1253      C1510   1.408   1_554  A
C1253      C1258   1.413       .  A
C1253      H1260   1.081       .  S
C1254      C1509   1.408       .  A
C1254      C1255   1.414       .  A
C1255      C1256   1.395       .  A
C1255      N1262   1.431       .  S
C1256      C1257   1.398       .  A
C1256      H1261   1.085       .  S
C1257      C1514   1.417       .  A
C1257      C1283   1.479       .  S
C1258      C1513   1.417   1_554  A
C1258      N1259   1.441       .  S
N1259      O1263   1.263       .  A
N1259      O1264   1.262       .  A
N1262      O1265   1.262       .  A
N1262      O1266   1.260       .  A
C1267      C1268   1.400       .  A
C1267      C1272   1.403       .  A
C1267      H1274   1.084       .  S
C1268      C1525   1.405       .  A
C1268      C1281   1.473       .  S
C1269      C1524   1.405   1_554  A
C1269      C1526   1.397   1_554  A
C1269      N1276   1.429       .  S
C1270      C1525   1.397       .  A
C1270      C1271   1.403       .  A
C1270      H1531   1.083       .  S
C1271      C1272   1.415       .  A
C1272      N1273   1.429       .  S
N1273      O1277   1.261       .  A
N1273      O1278   1.262       .  A
H1275      C1526   1.083   1_554  S
N1276      O1279   1.261       .  A
N1276      O1280   1.262       .  A
C1281      C1282   1.401       .  A
C1281      C1286   1.399       .  A
C1282      C1283   1.403       .  A
C1282      H1287   1.085       .  S
C1283      C1284   1.404       .  A
C1284      C1285   1.410       .  A
C1284      H1288   1.083       .  S
C1285      C1286   1.405       .  A
C1286      H1289   1.084       .  S
C1290      C1291   1.405       .  A
C1290      C1295   1.409       .  A
C1290      C1485   1.508       .  S
C1291      C1292   1.401       .  A
C1291      H1296   1.076       .  S
C1292      C1293   1.405       .  A
C1292      C1468   1.498       .  S
C1293      C1294   1.407       .  A
C1293      H1297   1.074       .  S
C1294      C1295   1.417       .  A
C1294      C1454   1.508       .  S
C1295      H1298   1.081       .  S
C1299      C1300   1.405       .  A
C1299      C1304   1.401       .  A
C1299      C1426   1.490       .  S
C1300      C1301   1.404       .  A
C1300      H1305   1.083       .  S
C1301      C1302   1.404       .  A
C1301      C1440   1.484       .  S
C1302      C1303   1.399       .  A
C1302      H1306   1.083       .  S
C1303      C1304   1.398       .  A
C1303      C1412   1.471       .  S
C1304      H1307   1.083       .  S
C1308      C1309   1.404       .  A
C1308      C1313   1.401       .  A
C1308      C1384   1.481       .  S
C1309      C1310   1.410       .  A
C1309      H1314   1.083       .  S
C1310      C1311   1.415       .  A
C1310      C1398   1.510       .  S
C1311      C1312   1.407       .  A
C1311      H1315   1.080       .  S
C1312      C1313   1.401       .  A
C1312      C1373   1.484       .  S
C1313      H1316   1.085       .  S
C1317      C1527   1.480       .  S
C1317      O1332   1.258       .  A
C1317      O1319   1.259       .  A
Tb1318     O1340   2.375       .  S
Tb1318     O1341   2.350       .  S
Tb1318     O1324   2.352       .  S
Tb1318     O1334   2.338   1_556  S
Tb1318     O1322   2.338       .  S
Tb1318     O1339   2.338       .  S
O1319     Tb1323   2.362       .  S
O1320      C1331   1.259       .  A
O1320     Tb1323   2.357       .  S
C1321      C1443   1.472       .  S
C1321      O1326   1.268       .  A
C1321      O1342   1.267       .  A
O1322      C1338   1.260       .  A
Tb1323     O1332   2.345       .  S
Tb1323     O1838   2.329   1_545  S
Tb1323     O1333   2.344       .  S
Tb1323     O1335   2.346       .  S
Tb1323     O1325   2.335       .  S
O1324      C1330   1.260       .  A
O1326     Tb1835   2.329       .  S
O1327      C1337   1.268   1_545  A
C1328      C1496   1.474       .  S
C1328      O1853   1.269       .  A
O1329      C1336   1.274       .  A
C1330      C1429   1.463       .  S
C1330      O1339   1.258       .  A
C1331      C1415   1.466       .  S
C1331      O1333   1.255       .  A
O1335      C1848   1.272   1_545  A
C1336      C1875   1.479       .  S
C1336      O1847   1.272       .  A
C1337      C1874   1.469       .  S
C1338      C1510   1.489       .  S
C1338      O1340   1.265       .  A
O1341      C1840   1.269       .  A
C1343      C1482   1.468       .  S
C1343      O1358   1.257       .  A
C1343      O1345   1.259       .  A
Tb1344     O1366   2.346       .  S
Tb1344     O1367   2.329       .  S
Tb1344     O1350   2.367       .  S
Tb1344     O1348   2.346       .  S
Tb1344     O1365   2.371       .  S
O1345     Tb1349   2.363       .  S
O1346      C1357   1.264       .  A
O1346     Tb1349   2.382       .  S
C1347      C1401   1.489       .  S
C1347      O1352   1.272       .  A
C1347      O1368   1.274       .  A
O1348      C1364   1.260       .  A
Tb1349     O1353   2.344       .  S
Tb1349     O1358   2.353       .  S
Tb1349     O1864   2.345   1_545  S
Tb1349     O1359   2.352       .  S
Tb1349     O1361   2.349       .  S
Tb1349     O1351   2.331       .  S
O1350      C1356   1.258       .  A
O1352     Tb1861   2.345       .  S
O1353      C1363   1.273   1_545  A
C1354      C1457   1.492       .  S
C1354      O1879   1.267   1_545  A
O1355      C1362   1.268       .  A
C1356      C1387   1.487       .  S
C1356      O1365   1.259       .  A
C1357      C1370   1.494       .  S
C1357      O1359   1.259       .  A
O1360      C1875   1.273       .  A
O1361      C1874   1.274   1_545  A
C1362      C1849   1.469       .  S
C1362      O1873   1.274       .  A
C1363      C1848   1.479       .  S
C1363      O1872   1.273       .  A
C1364      C1471   1.476       .  S
C1364      O1366   1.256       .  A
O1367      C1866   1.267       .  A
C1369      C1370   1.409       .  A
C1369      C1374   1.416       .  A
C1369      H1376   1.081       .  S
C1370      C1371   1.417       .  A
C1371      C1372   1.400       .  A
C1371      N1378   1.436       .  S
C1372      C1373   1.401       .  A
C1372      H1377   1.085       .  S
C1373      C1374   1.419       .  A
C1374      N1375   1.446       .  S
N1375      O1380   1.262       .  A
N1378      O1381   1.262       .  A
N1378      O1382   1.263       .  A
C1383      C1384   1.397       .  A
C1383      C1388   1.402       .  A
C1383      H1390   1.084       .  S
C1384      C1385   1.415       .  A
C1385      C1386   1.410       .  A
C1386      C1387   1.408       .  A
C1386      H1391   1.082       .  S
C1387      C1388   1.423       .  A
C1388      N1389   1.442       .  S
N1389      O1393   1.263       .  A
N1389      O1394   1.259       .  A
N1392      O1395   1.262   1_554  A
N1392      O1396   1.263   1_554  A
C1397      C1398   1.412       .  A
C1397      C1402   1.410       .  A
C1397      H1404   1.082       .  S
C1398      C1399   1.419       .  A
C1399      C1400   1.403       .  A
C1399      N1406   1.429       .  S
C1400      C1401   1.402       .  A
C1400      H1405   1.082       .  S
C1401      C1402   1.417       .  A
C1402      N1403   1.441       .  S
N1403      O1407   1.263       .  A
N1403      O1408   1.262       .  A
N1406      O1409   1.262       .  A
N1406      O1410   1.261       .  A
C1411      C1412   1.400       .  A
C1411      C1416   1.401       .  A
C1411      H1418   1.084       .  S
C1412      C1413   1.410       .  A
C1413      C1414   1.403       .  A
C1413      N1420   1.442       .  S
C1414      C1415   1.405       .  A
C1414      H1419   1.084       .  S
C1415      C1416   1.424       .  A
C1416      N1417   1.452       .  S
N1417      O1421   1.263       .  A
N1417      O1422   1.260       .  A
N1420      O1423   1.263       .  A
N1420      O1424   1.263       .  A
C1425      C1426   1.410       .  A
C1425      C1430   1.400       .  A
C1425      H1432   1.082       .  S
C1426      C1427   1.420       .  A
C1427      C1428   1.400       .  A
C1427      N1434   1.439       .  S
C1428      C1429   1.401       .  A
C1428      H1433   1.085       .  S
C1429      C1430   1.409       .  A
C1430      N1431   1.442       .  S
N1431      O1435   1.263       .  A
N1431      O1436   1.263       .  A
N1434      O1437   1.263       .  A
N1434      O1438   1.263       .  A
C1439      C1440   1.405       .  A
C1439      C1444   1.394       .  A
C1439      H1446   1.084       .  S
C1440      C1441   1.416       .  A
C1441      C1442   1.408       .  A
C1441      N1448   1.440       .  S
C1442      C1443   1.405       .  A
C1442      H1447   1.084       .  S
C1443      C1444   1.412       .  A
C1444      N1445   1.438       .  S
N1445      O1449   1.263       .  A
N1445      O1450   1.262       .  A
N1448      O1451   1.263       .  A
N1448      O1452   1.263       .  A
C1453      C1454   1.407       .  A
C1453      C1458   1.404       .  A
C1453      H1460   1.083       .  S
C1454      C1455   1.422       .  A
C1455      C1456   1.397       .  A
C1455      N1462   1.425       .  S
C1456      C1457   1.401       .  A
C1456      H1461   1.084   1_655  S
C1457      C1458   1.415       .  A
C1458      N1459   1.431       .  S
N1459      O1975   1.262   1_545  A
N1459      O1976   1.261   1_545  A
N1462      O1465   1.263       .  A
N1462      O1466   1.262       .  A
O1463      N1971   1.262       .  A
O1464      N1971   1.261       .  A
C1467      C1468   1.408       .  A
C1467      C1472   1.402       .  A
C1467      H1474   1.080       .  S
C1468      C1469   1.418       .  A
C1469      C1470   1.395       .  A
C1469      N1476   1.427       .  S
C1470      C1471   1.395       .  A
C1470      H1475   1.084       .  S
C1471      C1472   1.413       .  A
C1472      N1473   1.430       .  S
N1473      O1477   1.262       .  A
N1473      O1478   1.260       .  A
N1476      O1479   1.263       .  A
N1476      O1480   1.262       .  A
C1481      C1482   1.395       .  A
C1481      C1486   1.400       .  A
C1481      H1488   1.083       .  S
C1482      C1483   1.410       .  A
C1483      C1484   1.409       .  A
C1483      N1490   1.443       .  S
C1484      C1485   1.414       .  A
C1484      H1489   1.081       .  S
C1485      C1486   1.423       .  A
C1486      N1487   1.439       .  S
N1487      O1491   1.263       .  A
N1487      O1492   1.263       .  A
N1490      O1493   1.263   1_545  A
N1490      O1494   1.263       .  A
C1495      C1496   1.401       .  A
C1495      C1500   1.402       .  A
C1495      H1502   1.084       .  S
C1496      C1497   1.414       .  A
C1497      C1498   1.407   1_556  A
C1497      N1504   1.442   1_556  S
C1498      C1499   1.408   1_554  A
C1498      H1503   1.083       .  S
C1499      C1500   1.417       .  A
C1500      N1501   1.437       .  S
N1501      O1505   1.262       .  A
N1501      O1506   1.263       .  A
N1504      O2019   1.262       .  A
N1504      O2020   1.263       .  A
O1507      N2016   1.262       .  A
O1508      N2016   1.263       .  A
C1509      C1514   1.413       .  A
C1509      H1516   1.081       .  S
C1510      C1511   1.414       .  A
C1511      C1512   1.395       .  A
C1511      N1518   1.431       .  S
C1512      C1513   1.398       .  A
C1512      H1517   1.085       .  S
C1514      N1515   1.441       .  S
N1515      O1519   1.263       .  A
N1515      O1520   1.262       .  A
N1518      O1521   1.262       .  A
N1518      O1522   1.260       .  A
C1523      C1524   1.400       .  A
C1523      C1528   1.403       .  A
C1523      H1530   1.084       .  S
C1525      N1532   1.429       .  S
C1526      C1527   1.403       .  A
C1527      C1528   1.415       .  A
C1528      N1529   1.429       .  S
N1529      O1533   1.261       .  A
N1529      O1534   1.262       .  A
N1532      O1535   1.261       .  A
N1532      O1536   1.262       .  A
C1537      C1538   1.401       .  A
C1537      C1542   1.399       .  A
C1537      C2036   1.473       .  S
C1538      C1539   1.403       .  A
C1538      H1543   1.085       .  S
C1539      C1540   1.404       .  A
C1539      C2025   1.479       .  S
C1540      C1541   1.410       .  A
C1540      H1544   1.083       .  S
C1541      C1542   1.405       .  A
C1541      C2011   1.492       .  S
C1542      H1545   1.084       .  S
C1546      C1547   1.405       .  A
C1546      C1551   1.409       .  A
C1546      C1741   1.508       .  S
C1547      C1548   1.401       .  A
C1547      H1552   1.076       .  S
C1548      C1549   1.405       .  A
C1548      C1724   1.498       .  S
C1549      C1550   1.407       .  A
C1549      H1553   1.074       .  S
C1550      C1551   1.417       .  A
C1550      C1710   1.508       .  S
C1551      H1554   1.081       .  S
C1555      C1556   1.405       .  A
C1555      C1560   1.401       .  A
C1555      C1682   1.490       .  S
C1556      C1557   1.404       .  A
C1556      H1561   1.083       .  S
C1557      C1558   1.404       .  A
C1557      C1696   1.484       .  S
C1558      C1559   1.399       .  A
C1558      H1562   1.083       .  S
C1559      C1560   1.398       .  A
C1559      C1668   1.471       .  S
C1560      H1563   1.083       .  S
C1564      C1565   1.404       .  A
C1564      C1569   1.401       .  A
C1564      C1640   1.481       .  S
C1565      C1566   1.410       .  A
C1565      H1570   1.083       .  S
C1566      C1567   1.415       .  A
C1566      C1654   1.510       .  S
C1567      C1568   1.407       .  A
C1567      H1571   1.080       .  S
C1568      C1569   1.401       .  A
C1568      C1629   1.484       .  S
C1569      H1572   1.085       .  S
C1573      C1783   1.480       .  S
C1573      O1588   1.258       .  A
C1573      O1575   1.259       .  A
Tb1574     O1596   2.375       .  S
Tb1574     O1597   2.350   1_565  S
Tb1574     O1580   2.352       .  S
Tb1574     O1590   2.338       .  S
Tb1574     O1578   2.338       .  S
Tb1574     O1595   2.338       .  S
O1575     Tb1579   2.362       .  S
O1576      C1587   1.259       .  A
O1576     Tb1579   2.357       .  S
C1577      C1699   1.472       .  S
C1577      O1582   1.268       .  A
C1577      O1598   1.267       .  A
O1578      C1594   1.260       .  A
Tb1579     O1839   2.334       .  S
Tb1579     O1588   2.345       .  S
Tb1579     O1589   2.344       .  S
Tb1579     O1591   2.346       .  S
Tb1579     O1581   2.335       .  S
O1580      C1586   1.260       .  A
O1583      C1593   1.268   1_556  A
O1583     Tb1835   2.334       .  S
C1584      C1752   1.474       .  S
O1585      C1592   1.274       .  A
C1586      C1685   1.463       .  S
C1586      O1595   1.258       .  A
C1587      C1671   1.466       .  S
C1587      O1589   1.255       .  A
C1594      C1766   1.489       .  S
C1594      O1596   1.265       .  A
C1599      C1738   1.468       .  S
C1599      O1614   1.257       .  A
C1599      O1601   1.259       .  A
Tb1600     O1622   2.346       .  S
Tb1600     O1623   2.329       .  S
Tb1600     O1606   2.367       .  S
Tb1600     O1604   2.346       .  S
Tb1600     O1621   2.371       .  S
O1601     Tb1605   2.363       .  S
O1602      C1613   1.264       .  A
O1602     Tb1605   2.382       .  S
C1603      C1657   1.489       .  S
C1603      O1608   1.272       .  A
C1603      O1624   1.274       .  A
O1604      C1620   1.260       .  A
Tb1605     O1609   2.344       .  S
Tb1605     O1614   2.353       .  S
Tb1605     O1615   2.352       .  S
Tb1605     O1617   2.349       .  S
Tb1605     O1607   2.331       .  S
O1606      C1612   1.258       .  A
O1609      C1619   1.273       .  A
C1610      C1713   1.492       .  S
O1611      C1618   1.268       .  A
C1612      C1643   1.487       .  S
C1612      O1621   1.259       .  A
C1613      C1626   1.494       .  S
C1613      O1615   1.259       .  A
C1620      C1727   1.476       .  S
C1620      O1622   1.256       .  A
C1625      C1626   1.409       .  A
C1625      C1630   1.416       .  A
C1625      H1632   1.081       .  S
C1626      C1627   1.417       .  A
C1627      C1628   1.400       .  A
C1627      N1634   1.436       .  S
C1628      C1629   1.401       .  A
C1628      H1633   1.085       .  S
C1629      C1630   1.419       .  A
C1630      N1631   1.446       .  S
N1631      O1891   1.263   1_554  A
N1631      O1636   1.262   1_554  A
N1634      O1637   1.262       .  A
N1634      O1638   1.263       .  A
O1635      N1887   1.263       .  A
C1639      C1640   1.397       .  A
C1639      C1644   1.402       .  A
C1639      H1646   1.084       .  S
C1640      C1641   1.415       .  A
C1641      C1642   1.410       .  A
C1641      N1904   1.443       .  S
C1642      C1643   1.408       .  A
C1642      H1647   1.082       .  S
C1643      C1644   1.423       .  A
C1644      N1645   1.442       .  S
N1645      O1649   1.263       .  A
N1645      O1650   1.259       .  A
N1648      C1897   1.443       .  S
N1648      O1651   1.262       .  A
N1648      O1652   1.263       .  A
C1653      C1654   1.412       .  A
C1653      C1658   1.410       .  A
C1653      H1660   1.082       .  S
C1654      C1655   1.419       .  A
C1655      C1656   1.403       .  A
C1655      N1662   1.429       .  S
C1656      C1657   1.402       .  A
C1656      H1661   1.082       .  S
C1657      C1658   1.417       .  A
C1658      N1659   1.441       .  S
N1659      O1663   1.263       .  A
N1659      O1664   1.262       .  A
N1662      O1665   1.262       .  A
N1662      O1666   1.261       .  A
C1667      C1668   1.400       .  A
C1667      C1672   1.401       .  A
C1667      H1674   1.084       .  S
C1668      C1669   1.410       .  A
C1669      C1670   1.403       .  A
C1669      N1676   1.442       .  S
C1670      C1671   1.405       .  A
C1670      H1675   1.084       .  S
C1671      C1672   1.424       .  A
C1672      N1673   1.452       .  S
N1673      O1677   1.263       .  A
N1673      O1678   1.260       .  A
N1676      O1679   1.263       .  A
N1676      O1680   1.263       .  A
C1681      C1682   1.410       .  A
C1681      C1686   1.400       .  A
C1681      H1688   1.082       .  S
C1682      C1683   1.420       .  A
C1683      C1684   1.400       .  A
C1683      N1690   1.439       .  S
C1684      C1685   1.401       .  A
C1684      H1689   1.085       .  S
C1685      C1686   1.409       .  A
C1686      N1687   1.442       .  S
N1687      O1691   1.263       .  A
N1687      O1692   1.263       .  A
N1690      O1693   1.263       .  A
N1690      O1694   1.263       .  A
C1695      C1696   1.405       .  A
C1695      C1700   1.394       .  A
C1695      H1702   1.084       .  S
C1696      C1697   1.416       .  A
C1697      C1698   1.408       .  A
C1697      N1704   1.440       .  S
C1698      C1699   1.405       .  A
C1698      H1703   1.084       .  S
C1699      C1700   1.412       .  A
C1700      N1701   1.438       .  S
N1701      O1705   1.263       .  A
N1701      O1706   1.262       .  A
N1704      O1707   1.263       .  A
N1704      O1708   1.263       .  A
C1709      C1710   1.407       .  A
C1709      C1714   1.404       .  A
C1709      H1716   1.083       .  S
C1710      C1711   1.422       .  A
C1711      C1712   1.397       .  A
C1711      N1718   1.425       .  S
C1712      C1713   1.401       .  A
C1712      H1717   1.084   1_655  S
C1713      C1714   1.415       .  A
C1714      N1715   1.431       .  S
N1718      O1721   1.263       .  A
N1718      O1722   1.262       .  A
C1723      C1724   1.408       .  A
C1723      C1728   1.402       .  A
C1723      H1730   1.080       .  S
C1724      C1725   1.418       .  A
C1725      C1726   1.395       .  A
C1725      N1732   1.427       .  S
C1726      C1727   1.395       .  A
C1726      H1731   1.084       .  S
C1727      C1728   1.413       .  A
C1728      N1729   1.430       .  S
N1729      O1733   1.262       .  A
N1729      O1734   1.260       .  A
N1732      O1735   1.263       .  A
N1732      O1736   1.262       .  A
C1737      C1738   1.395       .  A
C1737      C1742   1.400       .  A
C1737      H1744   1.083       .  S
C1738      C1739   1.410       .  A
C1739      C1740   1.409       .  A
C1739      N1746   1.443       .  S
C1740      C1741   1.414       .  A
C1740      H1745   1.081       .  S
C1741      C1742   1.423       .  A
C1742      N1743   1.439       .  S
N1743      O1747   1.263       .  A
N1743      O1748   1.263       .  A
N1746      O1749   1.263       .  A
N1746      O1750   1.263       .  A
C1751      C1752   1.401       .  A
C1751      C1756   1.402       .  A
C1751      H1758   1.084       .  S
C1752      C1753   1.414       .  A
C1753      C1754   1.407       .  A
C1753      N1760   1.442       .  S
C1754      C1755   1.408       .  A
C1754      H1759   1.083       .  S
C1755      C1756   1.417       .  A
C1755      C1797   1.492       .  S
C1756      N1757   1.437       .  S
N1757      O1761   1.262       .  A
N1757      O1762   1.263       .  A
C1765      C2022   1.408   1_554  A
C1765      C1770   1.413       .  A
C1765      H1772   1.081       .  S
C1766      C2021   1.408       .  A
C1766      C1767   1.414       .  A
C1767      C1768   1.395       .  A
C1767      N1774   1.431       .  S
C1768      C1769   1.398       .  A
C1768      H1773   1.085       .  S
C1769      C2026   1.417       .  A
C1769      C1795   1.479       .  S
C1770      C2025   1.417   1_554  A
C1770      N1771   1.441       .  S
N1771      O1775   1.263       .  A
N1771      O1776   1.262       .  A
N1774      O1777   1.262       .  A
N1774      O1778   1.260       .  A
C1779      C1780   1.400       .  A
C1779      C1784   1.403       .  A
C1779      H1786   1.084       .  S
C1780      C2037   1.405       .  A
C1780      C1793   1.473       .  S
C1781      C2036   1.405   1_554  A
C1781      C2038   1.397   1_554  A
C1781      N1788   1.429       .  S
C1782      C2037   1.397       .  A
C1782      C1783   1.403       .  A
C1782      H2043   1.083       .  S
C1783      C1784   1.415       .  A
C1784      N1785   1.429       .  S
N1785      O1789   1.261       .  A
N1785      O1790   1.262       .  A
H1787      C2038   1.083   1_554  S
N1788      O1791   1.261       .  A
N1788      O1792   1.262       .  A
C1793      C1794   1.401       .  A
C1793      C1798   1.399       .  A
C1794      C1795   1.403       .  A
C1794      H1799   1.085       .  S
C1795      C1796   1.404       .  A
C1796      C1797   1.410       .  A
C1796      H1800   1.083       .  S
C1797      C1798   1.405       .  A
C1798      H1801   1.084       .  S
C1802      C1803   1.405       .  A
C1802      C1807   1.409       .  A
C1802      C1997   1.508       .  S
C1803      C1804   1.401       .  A
C1803      H1808   1.076       .  S
C1804      C1805   1.405       .  A
C1804      C1980   1.498       .  S
C1805      C1806   1.407       .  A
C1805      H1809   1.074       .  S
C1806      C1807   1.417       .  A
C1806      C1966   1.508       .  S
C1807      H1810   1.081       .  S
C1811      C1812   1.405       .  A
C1811      C1816   1.401       .  A
C1811      C1938   1.490       .  S
C1812      C1813   1.404       .  A
C1812      H1817   1.083       .  S
C1813      C1814   1.404       .  A
C1813      C1952   1.484       .  S
C1814      C1815   1.399       .  A
C1814      H1818   1.083       .  S
C1815      C1816   1.398       .  A
C1815      C1924   1.471       .  S
C1816      H1819   1.083       .  S
C1820      C1821   1.404       .  A
C1820      C1825   1.401       .  A
C1820      C1896   1.481       .  S
C1821      C1822   1.410       .  A
C1821      H1826   1.083       .  S
C1822      C1823   1.415       .  A
C1822      C1910   1.510       .  S
C1823      C1824   1.407       .  A
C1823      H1827   1.080       .  S
C1824      C1825   1.401       .  A
C1824      C1885   1.484       .  S
C1825      H1828   1.085       .  S
C1829      C2039   1.480       .  S
C1829      O1844   1.258       .  A
C1829      O1831   1.259       .  A
Tb1830     O1852   2.375       .  S
Tb1830     O1853   2.350   1_565  S
Tb1830     O1836   2.352       .  S
Tb1830     O1846   2.338   1_556  S
Tb1830     O1834   2.338       .  S
Tb1830     O1851   2.338       .  S
O1831     Tb1835   2.362       .  S
O1832      C1843   1.259       .  A
O1832     Tb1835   2.357       .  S
C1833      C1955   1.472       .  S
C1833      O1838   1.268       .  A
C1833      O1854   1.267       .  A
O1834      C1850   1.260       .  A
Tb1835     O1844   2.345       .  S
Tb1835     O1845   2.344       .  S
Tb1835     O1847   2.346       .  S
Tb1835     O1837   2.335       .  S
O1836      C1842   1.260       .  A
O1839      C1849   1.268       .  A
C1840      C2008   1.474       .  S
O1841      C1848   1.274       .  A
C1842      C1941   1.463       .  S
C1842      O1851   1.258       .  A
C1843      C1927   1.466       .  S
C1843      O1845   1.255       .  A
C1850      C2022   1.489       .  S
C1850      O1852   1.265       .  A
C1855      C1994   1.468       .  S
C1855      O1870   1.257       .  A
C1855      O1857   1.259       .  A
Tb1856     O1878   2.346       .  S
Tb1856     O1879   2.329       .  S
Tb1856     O1862   2.367       .  S
Tb1856     O1860   2.346       .  S
Tb1856     O1877   2.371       .  S
O1857     Tb1861   2.363       .  S
O1858      C1869   1.264       .  A
O1858     Tb1861   2.382       .  S
C1859      C1913   1.489       .  S
C1859      O1864   1.272       .  A
C1859      O1880   1.274       .  A
O1860      C1876   1.260       .  A
Tb1861     O1865   2.344       .  S
Tb1861     O1870   2.353       .  S
Tb1861     O1871   2.352       .  S
Tb1861     O1873   2.349       .  S
Tb1861     O1863   2.331       .  S
O1862      C1868   1.258       .  A
O1865      C1875   1.273       .  A
C1866      C1969   1.492       .  S
O1867      C1874   1.268       .  A
C1868      C1899   1.487       .  S
C1868      O1877   1.259       .  A
C1869      C1882   1.494       .  S
C1869      O1871   1.259       .  A
C1876      C1983   1.476       .  S
C1876      O1878   1.256       .  A
C1881      C1882   1.409       .  A
C1881      C1886   1.416       .  A
C1881      H1888   1.081       .  S
C1882      C1883   1.417       .  A
C1883      C1884   1.400       .  A
C1883      N1890   1.436       .  S
C1884      C1885   1.401       .  A
C1884      H1889   1.085       .  S
C1885      C1886   1.419       .  A
C1886      N1887   1.446       .  S
N1887      O1892   1.262       .  A
N1890      O1893   1.262       .  A
N1890      O1894   1.263       .  A
C1895      C1896   1.397       .  A
C1895      C1900   1.402       .  A
C1895      H1902   1.084       .  S
C1896      C1897   1.415       .  A
C1897      C1898   1.410       .  A
C1898      C1899   1.408       .  A
C1898      H1903   1.082       .  S
C1899      C1900   1.423       .  A
C1900      N1901   1.442       .  S
N1901      O1905   1.263       .  A
N1901      O1906   1.259       .  A
N1904      O1907   1.262   1_554  A
N1904      O1908   1.263   1_554  A
C1909      C1910   1.412       .  A
C1909      C1914   1.410       .  A
C1909      H1916   1.082       .  S
C1910      C1911   1.419       .  A
C1911      C1912   1.403       .  A
C1911      N1918   1.429       .  S
C1912      C1913   1.402       .  A
C1912      H1917   1.082       .  S
C1913      C1914   1.417       .  A
C1914      N1915   1.441       .  S
N1915      O1919   1.263       .  A
N1915      O1920   1.262       .  A
N1918      O1921   1.262       .  A
N1918      O1922   1.261       .  A
C1923      C1924   1.400       .  A
C1923      C1928   1.401       .  A
C1923      H1930   1.084       .  S
C1924      C1925   1.410       .  A
C1925      C1926   1.403       .  A
C1925      N1932   1.442       .  S
C1926      C1927   1.405       .  A
C1926      H1931   1.084       .  S
C1927      C1928   1.424       .  A
C1928      N1929   1.452       .  S
N1929      O1933   1.263       .  A
N1929      O1934   1.260       .  A
N1932      O1935   1.263       .  A
N1932      O1936   1.263       .  A
C1937      C1938   1.410       .  A
C1937      C1942   1.400       .  A
C1937      H1944   1.082       .  S
C1938      C1939   1.420       .  A
C1939      C1940   1.400       .  A
C1939      N1946   1.439       .  S
C1940      C1941   1.401       .  A
C1940      H1945   1.085       .  S
C1941      C1942   1.409       .  A
C1942      N1943   1.442       .  S
N1943      O1947   1.263       .  A
N1943      O1948   1.263       .  A
N1946      O1949   1.263       .  A
N1946      O1950   1.263       .  A
C1951      C1952   1.405       .  A
C1951      C1956   1.394       .  A
C1951      H1958   1.084       .  S
C1952      C1953   1.416       .  A
C1953      C1954   1.408       .  A
C1953      N1960   1.440       .  S
C1954      C1955   1.405       .  A
C1954      H1959   1.084       .  S
C1955      C1956   1.412       .  A
C1956      N1957   1.438       .  S
N1957      O1961   1.263       .  A
N1957      O1962   1.262       .  A
N1960      O1963   1.263       .  A
N1960      O1964   1.263       .  A
C1965      C1966   1.407       .  A
C1965      C1970   1.404       .  A
C1965      H1972   1.083       .  S
C1966      C1967   1.422       .  A
C1967      C1968   1.397       .  A
C1967      N1974   1.425       .  S
C1968      C1969   1.401       .  A
C1968      H1973   1.084   1_655  S
C1969      C1970   1.415       .  A
C1970      N1971   1.431       .  S
N1974      O1977   1.263       .  A
N1974      O1978   1.262       .  A
C1979      C1980   1.408       .  A
C1979      C1984   1.402       .  A
C1979      H1986   1.080       .  S
C1980      C1981   1.418       .  A
C1981      C1982   1.395       .  A
C1981      N1988   1.427       .  S
C1982      C1983   1.395       .  A
C1982      H1987   1.084       .  S
C1983      C1984   1.413       .  A
C1984      N1985   1.430       .  S
N1985      O1989   1.262       .  A
N1985      O1990   1.260       .  A
N1988      O1991   1.263       .  A
N1988      O1992   1.262       .  A
C1993      C1994   1.395       .  A
C1993      C1998   1.400       .  A
C1993      H2000   1.083       .  S
C1994      C1995   1.410       .  A
C1995      C1996   1.409       .  A
C1995      N2002   1.443       .  S
C1996      C1997   1.414       .  A
C1996      H2001   1.081       .  S
C1997      C1998   1.423       .  A
C1998      N1999   1.439       .  S
N1999      O2003   1.263       .  A
N1999      O2004   1.263       .  A
N2002      O2005   1.263       .  A
N2002      O2006   1.263       .  A
C2007      C2008   1.401       .  A
C2007      C2012   1.402       .  A
C2007      H2014   1.084       .  S
C2008      C2009   1.414       .  A
C2009      C2010   1.407   1_556  A
C2009      N2016   1.442   1_556  S
C2010      C2011   1.408   1_554  A
C2010      H2015   1.083       .  S
C2011      C2012   1.417       .  A
C2012      N2013   1.437       .  S
N2013      O2017   1.262       .  A
N2013      O2018   1.263       .  A
C2021      C2026   1.413       .  A
C2021      H2028   1.081       .  S
C2022      C2023   1.414       .  A
C2023      C2024   1.395       .  A
C2023      N2030   1.431       .  S
C2024      C2025   1.398       .  A
C2024      H2029   1.085       .  S
C2026      N2027   1.441       .  S
N2027      O2031   1.263       .  A
N2027      O2032   1.262       .  A
N2030      O2033   1.262       .  A
N2030      O2034   1.260       .  A
C2035      C2036   1.400       .  A
C2035      C2040   1.403       .  A
C2035      H2042   1.084       .  S
C2037      N2044   1.429       .  S
C2038      C2039   1.403       .  A
C2039      C2040   1.415       .  A
C2040      N2041   1.429       .  S
N2041      O2045   1.261       .  A
N2041      O2046   1.262       .  A
N2044      O2047   1.261       .  A
N2044      O2048   1.262       .  A
