geometry optimzed in LAMMPS
_audit_creation_date              2020-12-01 
_audit_creation_method            'lammps2cif' 
_symmetry_space_group_name_H-M    'P1' 
_symmetry_Int_Tables_number       1 
_symmetry_cell_setting            triclinic 
loop_ 
_symmetry_equiv_pos_as_xyz 
  x,y,z 
_cell_length_a                    55.33259121 
_cell_length_b                    55.276896426621306 
_cell_length_c                    71.8235980984108 
_cell_angle_alpha                 89.96039721276125 
_cell_angle_beta                  90.12250200966771 
_cell_angle_gamma                 119.4712152676821 
loop_ 
_atom_site_label 
_atom_site_type_symbol 
_atom_site_fract_x 
_atom_site_fract_y 
_atom_site_fract_z 
_atom_site_charge 
N1          N  0.66948347  0.82333503  0.21462509    -0.26700
N2          N  0.65085862  0.82732801  0.22358462    -0.34600
C3          C  0.63084419  0.82411557  0.21148309     0.01600
C4          C  0.63701758  0.81726933  0.19428809     0.07600
C5          C  0.66154144  0.81686172  0.19679310    -0.05500
H6          H  0.61262631  0.82555664  0.21510029     0.08300
H7          H  0.67300364  0.81255354  0.18636341     0.09500
Cu8        Cu  0.65175711  0.83341620  0.25232094     0.44200
Cu9        Cu  0.70583130  0.82850758  0.22639824     0.42000
Cu10       Cu  0.70879373  0.83225997  0.27611085     0.43900
N11         N  0.65371268  0.82997372  0.28116539    -0.34100
N12         N  0.67380515  0.82767869  0.28953812    -0.28400
C13         C  0.66758537  0.82200461  0.30765630    -0.04500
C14         C  0.64257788  0.82108110  0.31095692     0.07800
C15         C  0.63436662  0.82635280  0.29391135     0.01600
H16         H  0.68022837  0.81852935  0.31764667     0.09200
H17         H  0.61505122  0.82598650  0.29080347     0.08300
N18         N  0.74308139  0.84267666  0.25964908    -0.35600
N19         N  0.74212993  0.84153644  0.24127994    -0.27700
C20         C  0.76816537  0.85341669  0.23461662    -0.03000
C21         C  0.78637384  0.86227090  0.24955523     0.05600
C22         C  0.76968891  0.85515358  0.26519382     0.03700
H23         H  0.77345799  0.85666242  0.21998687     0.08800
H24         H  0.77640166  0.86056572  0.27948893     0.07700
N25         N  0.19340842  0.36065622  0.21078370    -0.26700
N26         N  0.21541123  0.38109343  0.21901798    -0.34600
C27         C  0.23022007  0.40062764  0.20620761     0.01600
C28         C  0.21655305  0.39224701  0.18929257     0.07600
C29         C  0.19329512  0.36691110  0.19270360    -0.05500
H30         H  0.24896232  0.41995407  0.20913538     0.08300
H31         H  0.17764380  0.35375623  0.18272444     0.09500
Cu32       Cu  0.22247492  0.38321552  0.24771728     0.44200
Cu33       Cu  0.16531694  0.32420886  0.22386502     0.42000
Cu34       Cu  0.17032265  0.32467974  0.27347206     0.43900
N35         N  0.21822713  0.38316999  0.27662357    -0.34100
N36         N  0.19774338  0.36229104  0.28562739    -0.28400
C37         C  0.19818995  0.36939736  0.30355589    -0.04500
C38         C  0.22027141  0.39582952  0.30611983     0.07800
C39         C  0.23271097  0.40397060  0.28880498     0.01600
H40         H  0.18359438  0.35616734  0.31400423     0.09200
H41         H  0.25019559  0.42391290  0.28517625     0.08300
N42         N  0.14811563  0.28867749  0.25812154    -0.35600
N43         N  0.14587022  0.28853304  0.23981569    -0.27700
C44         C  0.13209250  0.26209925  0.23380848    -0.03000
C45         C  0.12568082  0.24465179  0.24908534     0.05600
C46         C  0.13593194  0.26233781  0.26427528     0.03700
H47         H  0.12757289  0.25621985  0.21933415     0.08800
H48         H  0.13565351  0.25651681  0.27869692     0.07700
N49         N  0.20604703  0.83528687  0.28816485    -0.26700
N50         N  0.20848934  0.81533208  0.27972770    -0.34600
C51         C  0.21371120  0.80080628  0.29267891     0.01600
C52         C  0.21511495  0.81264774  0.30993334     0.07600
C53         C  0.21028059  0.83446430  0.30652661    -0.05500
H54         H  0.21715031  0.78355628  0.28969916     0.08300
H55         H  0.20937621  0.84842860  0.31669553     0.09500
Cu56       Cu  0.20739159  0.81118404  0.25077525     0.44200
Cu57       Cu  0.19502970  0.86162123  0.27483904     0.42000
Cu58       Cu  0.19404430  0.86095615  0.22532391     0.43900
N59         N  0.21243088  0.81795499  0.22207420    -0.34100
N60         N  0.20941853  0.83736797  0.21327912    -0.28400
C61         C  0.21637730  0.83800613  0.19529855    -0.04500
C62         C  0.22358296  0.81769437  0.19253997     0.07800
C63         C  0.22074099  0.80523832  0.20971222     0.01600
H64         H  0.21537776  0.85165232  0.18489049     0.09200
H65         H  0.22490004  0.78854507  0.21304408     0.08300
N66         N  0.17678491  0.87999876  0.24088905    -0.35600
N67         N  0.17785553  0.88085369  0.25926143    -0.27700
C68         C  0.16431426  0.89380121  0.26550200    -0.03000
C69         C  0.15389422  0.90112239  0.25031760     0.05600
C70         C  0.16229733  0.89216141  0.23490485     0.03700
H71         H  0.16142301  0.89679074  0.28004835     0.08800
H72         H  0.15811478  0.89419524  0.22043059     0.07700
C73         C  0.99336673  0.99133366  0.25410143     0.80800
N74         N  0.01007094  0.97973754  0.25460188    -0.77500
C75         C  0.03812200  0.99582040  0.25489632     0.83200
N76         N  0.04951685  0.02385317  0.25524092    -0.77500
C77         C  0.03321256  0.03579374  0.25446455     0.83300
N78         N  0.00519992  0.01944427  0.25394880    -0.79200
N79         N  0.82672150  0.29334690  0.90967416    -0.26700
N80         N  0.84130116  0.29922802  0.89413643    -0.34600
C81         C  0.86362830  0.32469849  0.89560922     0.01600
C82         C  0.86287013  0.33559047  0.91279284     0.07600
C83         C  0.83921530  0.31509571  0.92136107    -0.05500
H84         H  0.87969197  0.33422133  0.88517416     0.08300
H85         H  0.83249590  0.31529262  0.93547191     0.09500
Cu86       Cu  0.83146489  0.27151018  0.87228778     0.44200
Cu87       Cu  0.79264675  0.25469300  0.91511419     0.42000
Cu88       Cu  0.78292492  0.19970555  0.88304753     0.43900
N89         N  0.82015344  0.23930749  0.85349667    -0.34100
N90         N  0.80392130  0.21284986  0.85781555    -0.28400
C91         C  0.80241959  0.19710253  0.84309786    -0.04500
C92         C  0.81797904  0.21455666  0.82878287     0.07800
C93         C  0.82885985  0.24114585  0.83581079     0.01600
H94         H  0.79058414  0.17464028  0.84275581     0.09200
H95         H  0.84287303  0.26035892  0.82883196     0.08300
N96         N  0.75903780  0.19325768  0.90683780    -0.35600
N97         N  0.76182116  0.21352187  0.91798752    -0.27700
C98         C  0.74142809  0.20307023  0.93075767    -0.03000
C99         C  0.72524839  0.17483130  0.92766718     0.05600
C100        C  0.73698058  0.16930332  0.91239811     0.03700
H101        H  0.73835672  0.21520299  0.94134152     0.08800
H102        H  0.72925107  0.14959547  0.90530494     0.07700
N103        N  0.21794973  0.46066373  0.08226001    -0.26700
N104        N  0.19917164  0.44762816  0.09530837    -0.34600
C105        C  0.17571729  0.44786452  0.09067494     0.01600
C106        C  0.17989015  0.46168480  0.07383566     0.07600
C107        C  0.20702526  0.46962846  0.06900036    -0.05500
H108        H  0.15745555  0.43974615  0.09939033     0.08300
H109        H  0.21821916  0.48156520  0.05691939     0.09500
Cu110      Cu  0.20778749  0.43267388  0.11954042     0.44200
Cu111      Cu  0.25803200  0.46715212  0.08411707     0.42000
Cu112      Cu  0.28096205  0.45476989  0.12880967     0.43900
N113        N  0.22231166  0.42318463  0.14364264    -0.34100
N114        N  0.24886624  0.43263842  0.14753804    -0.28400
C115        C  0.25095390  0.42357362  0.16455575    -0.04500
C116        C  0.22447634  0.40729148  0.17149988     0.07800
C117        C  0.20683903  0.40738011  0.15788630     0.01600
H118        H  0.27025054  0.42769435  0.17108456     0.09200
H119        H  0.18440212  0.39696609  0.15837008     0.08300
N120        N  0.30642054  0.46973826  0.10551259    -0.35600
N121        N  0.29741054  0.47306192  0.08915296    -0.27700
C122        C  0.31750092  0.47998304  0.07644544    -0.03000
C123        C  0.34042783  0.48144680  0.08517763     0.05600
C124        C  0.33275758  0.47484448  0.10363073     0.03700
H125        H  0.31539411  0.48323941  0.06180664     0.08800
H126        H  0.34488686  0.47257353  0.11463073     0.07700
N127        N  0.82925765  0.54758034  0.90819530    -0.26700
N128        N  0.84733866  0.56187862  0.89501433    -0.34600
C129        C  0.87218836  0.56465193  0.89947322     0.01600
C130        C  0.86982544  0.55181344  0.91643076     0.07600
C131        C  0.84223699  0.54104334  0.92149619    -0.05500
H132        H  0.89070510  0.57551746  0.89107564     0.08300
H133        H  0.83222565  0.52905824  0.93382858     0.09500
Cu134      Cu  0.83763487  0.57741405  0.87172577     0.44200
Cu135      Cu  0.78802366  0.53848734  0.90748379     0.42000
Cu136      Cu  0.76654515  0.56049158  0.86550500     0.43900
N137        N  0.82367859  0.59009131  0.84903253    -0.34100
N138        N  0.79730535  0.58256137  0.84612849    -0.28400
C139        C  0.79508276  0.59375569  0.83001509    -0.04500
C140        C  0.82142051  0.60946282  0.82273331     0.07800
C141        C  0.83904875  0.60677266  0.83510940     0.01600
H142        H  0.77593381  0.59161603  0.82446023     0.09200
H143        H  0.86137742  0.61616645  0.83406500     0.08300
N144        N  0.74195885  0.54433503  0.88892232    -0.35600
N145        N  0.74973370  0.53656060  0.90418450    -0.27700
C146        C  0.73034052  0.53032292  0.91738365    -0.03000
C147        C  0.70931826  0.53423061  0.91007729     0.05600
C148        C  0.71744810  0.54316593  0.89201077     0.03700
H149        H  0.73201975  0.52456814  0.93153680     0.08800
H150        H  0.70728616  0.55015278  0.88222770     0.07700
C151        C  0.00962370  0.49503948  0.98653778     0.02900
C152        C  0.00974876  0.52064459  0.98790090     0.02800
C153        C  0.02877090  0.54110920  0.00002385    -0.17700
C154        C  0.04834504  0.53708115  0.01000969     0.02900
C155        C  0.04867091  0.51176183  0.00820144     0.02800
C156        C  0.02877933  0.49080815  0.99679560    -0.17700
H157        H  0.02843568  0.47107544  0.99566578     0.04900
H158        H  0.02868104  0.56058939  0.00148130     0.04900
C159        C  0.50796130  0.51960613  0.00911437     0.02900
C160        C  0.53271827  0.54523871  0.00763992     0.02800
C161        C  0.55413254  0.54744167  0.99607693    -0.17700
C162        C  0.55112031  0.52458219  0.98564475     0.02900
C163        C  0.52587943  0.49907187  0.98687091     0.02800
C164        C  0.50479987  0.49686594  0.99872298    -0.17700
H165        H  0.48556956  0.47726944  0.99973729     0.04900
H166        H  0.57341288  0.56701221  0.99541368     0.04900
N167        N  0.22646531  0.73783572  0.09222600    -0.26700
N168        N  0.21195014  0.72977296  0.10780675    -0.34600
C169        C  0.18896422  0.70513681  0.10483876     0.01600
C170        C  0.18911026  0.69751661  0.08648319     0.07600
C171        C  0.21312375  0.71877494  0.07893595    -0.05500
H172        H  0.17264308  0.69441359  0.11495229     0.08300
H173        H  0.21996896  0.72071810  0.06463534     0.09500
Cu174      Cu  0.22214637  0.75473841  0.13130799     0.44200
Cu175      Cu  0.26187598  0.77567820  0.08868037     0.42000
Cu176      Cu  0.27277115  0.82735659  0.12286809     0.43900
N177        N  0.23224117  0.78634052  0.15049677    -0.34100
N178        N  0.24907496  0.81295211  0.14687514    -0.28400
C179        C  0.24875499  0.82820903  0.16135670    -0.04500
C180        C  0.23139365  0.81027691  0.17483947     0.07800
C181        C  0.22132003  0.78393422  0.16756337     0.01600
H182        H  0.26044841  0.85066004  0.16206466     0.09200
H183        H  0.20621520  0.76453916  0.17384672     0.08300
N184        N  0.29717506  0.83545812  0.09929827    -0.35600
N185        N  0.29349436  0.81626685  0.08692870    -0.27700
C186        C  0.31294244  0.82773223  0.07361835    -0.03000
C187        C  0.32991817  0.85554584  0.07788861     0.05600
C188        C  0.31912567  0.85969930  0.09420287     0.03700
H189        H  0.31422852  0.81664146  0.06159787     0.08800
H190        H  0.32695961  0.87885571  0.10199655     0.07700
N191        N  0.48808231  0.21335937  0.90920644    -0.26700
N192        N  0.48127293  0.19796449  0.89396315    -0.34600
C193        C  0.48462471  0.17579668  0.89724700     0.01600
C194        C  0.49376628  0.17723283  0.91546196     0.07600
C195        C  0.49593320  0.20151287  0.92249522    -0.05500
H196        H  0.48050747  0.15975482  0.88711441     0.08300
H197        H  0.50194042  0.20957435  0.93647877     0.09500
Cu198      Cu  0.46539912  0.20663136  0.86991811     0.44200
Cu199      Cu  0.48501291  0.24890091  0.91196894     0.42000
Cu200      Cu  0.44939209  0.26261039  0.87525163     0.43900
N201        N  0.44390537  0.21649521  0.84998048    -0.34100
N202        N  0.43667272  0.23574862  0.85272316    -0.28400
C203        C  0.42075183  0.23543059  0.83845442    -0.04500
C204        C  0.41817748  0.21540740  0.82589421     0.07800
C205        C  0.43325435  0.20388060  0.83353959     0.01600
H206        H  0.41202909  0.24910035  0.83719340     0.09200
H207        H  0.43552222  0.18697550  0.82787728     0.08300
N208        N  0.46644783  0.28835413  0.89810579    -0.35600
N209        N  0.47956577  0.28322040  0.91158128    -0.27700
C210        C  0.48895117  0.30394884  0.92407457    -0.03000
C211        C  0.48129437  0.32309808  0.91824811     0.05600
C212        C  0.46717555  0.31258532  0.90163890     0.03700
H213        H  0.50063074  0.30504036  0.93645281     0.08800
H214        H  0.45879759  0.32216687  0.89246393     0.07700
N215        N  0.55486101  0.82286388  0.09538761    -0.26700
N216        N  0.56295090  0.83764766  0.11089893    -0.34600
C217        C  0.56341744  0.86197348  0.10804823     0.01600
C218        C  0.55568989  0.86264618  0.08978203     0.07600
C219        C  0.55018429  0.83740286  0.08225608    -0.05500
H220        H  0.57004773  0.87842559  0.11825243     0.08300
H221        H  0.54368599  0.83026329  0.06815879     0.09500
Cu222      Cu  0.57640868  0.82545879  0.13432489     0.44200
Cu223      Cu  0.55296212  0.78475437  0.09184212     0.42000
Cu224      Cu  0.58929523  0.76764557  0.12613400     0.43900
N225        N  0.59595268  0.81234161  0.15334146    -0.34100
N226        N  0.60208198  0.79248756  0.14978045    -0.28400
C227        C  0.61741663  0.79114702  0.16386764    -0.04500
C228        C  0.62066463  0.81070687  0.17705186     0.07800
C229        C  0.60672620  0.82371682  0.17001876     0.01600
H230        H  0.62556477  0.77693306  0.16447175     0.09200
H231        H  0.60557358  0.84099083  0.17615270     0.08300
N232        N  0.57213035  0.74424249  0.10222944    -0.35600
N233        N  0.55789089  0.75002889  0.08993853    -0.27700
C234        C  0.54901583  0.73092481  0.07627152    -0.03000
C235        C  0.55821158  0.71226380  0.08011715     0.05600
C236        C  0.57295353  0.72144155  0.09661143     0.03700
H237        H  0.53732526  0.73102070  0.06419944     0.08800
H238        H  0.58334086  0.71211613  0.10404241     0.07700
C239        C  0.52366799  0.04164733  0.99315192     0.02900
C240        C  0.54928580  0.04205578  0.99491298     0.02800
C241        C  0.55160429  0.02355422  0.00717747    -0.17700
C242        C  0.52872373  0.00419588  0.01751990     0.02900
C243        C  0.50283002  0.00314000  0.01526543     0.02800
C244        C  0.50064084  0.02188174  0.00315974    -0.17700
H245        H  0.48076262  0.02105972  0.00150170     0.04900
H246        H  0.57135546  0.02402243  0.00851814     0.04900
N247        N  0.37338936  0.19736109  0.71196860    -0.26700
N248        N  0.39315651  0.19582013  0.72136890    -0.34600
C249        C  0.41372389  0.20004019  0.70952140     0.01600
C250        C  0.40658979  0.20492740  0.69198920     0.07600
C251        C  0.38100504  0.20318736  0.69406376    -0.05500
H252        H  0.43285804  0.20059498  0.71349910     0.08300
H253        H  0.36865271  0.20564867  0.68331280     0.09500
Cu254      Cu  0.39221598  0.19168810  0.75022843     0.44200
Cu255      Cu  0.33648003  0.19038643  0.72362934     0.42000
Cu256      Cu  0.33491156  0.19554515  0.77318159     0.43900
N257        N  0.39037117  0.19758726  0.77872512    -0.34100
N258        N  0.37102567  0.20154444  0.78669893    -0.28400
C259        C  0.37793806  0.20834845  0.80469397    -0.04500
C260        C  0.40237965  0.20803239  0.80829459     0.07800
C261        C  0.40961329  0.20102521  0.79155867     0.01600
H262        H  0.36588828  0.21288622  0.81450487     0.09200
H263        H  0.42815621  0.19977673  0.78870087     0.08300
N264        N  0.29942281  0.18102996  0.75645885    -0.35600
N265        N  0.30029594  0.17862985  0.73820189    -0.27700
C266        C  0.27430229  0.16524783  0.73139466    -0.03000
C267        C  0.25592262  0.15908133  0.74599155     0.05600
C268        C  0.27262855  0.16941893  0.76171672     0.03700
H269        H  0.26914805  0.15952190  0.71692769     0.08800
H270        H  0.26576613  0.16701694  0.77603355     0.07700
N271        N  0.83344846  0.18503656  0.78840726    -0.26700
N272        N  0.83204731  0.20591202  0.78041061    -0.34600
C273        C  0.82624420  0.21969588  0.79354399     0.01600
C274        C  0.82336378  0.20648851  0.81043549     0.07600
C275        C  0.82792735  0.18460301  0.80665885    -0.05500
H276        H  0.82389923  0.23771321  0.79094374     0.08300
H277        H  0.82818684  0.16998185  0.81657031     0.09500
Cu278      Cu  0.83612125  0.21357819  0.75182972     0.44200
Cu279      Cu  0.84503385  0.15899849  0.77507611     0.42000
Cu280      Cu  0.84765649  0.16326334  0.72617650     0.43900
N281        N  0.83424844  0.21000433  0.72290575    -0.34100
N282        N  0.83696758  0.19053234  0.71400093    -0.28400
C283        C  0.83135289  0.19108171  0.69588845    -0.04500
C284        C  0.82522850  0.21213706  0.69311788     0.07800
C285        C  0.82734222  0.22390420  0.71047212     0.01600
H286        H  0.83144816  0.17694063  0.68551626     0.09200
H287        H  0.82272915  0.24023639  0.71395583     0.08300
N288        N  0.86037925  0.13925357  0.74069763    -0.35600
N289        N  0.85956620  0.13763315  0.75903114    -0.27700
C290        C  0.87126459  0.12246657  0.76455209    -0.03000
C291        C  0.87976584  0.11399111  0.74886185     0.05600
C292        C  0.87252445  0.12517714  0.73400769     0.03700
H293        H  0.87475548  0.11928666  0.77895121     0.08800
H294        H  0.87661837  0.12398571  0.71940642     0.07700
C295        C  0.00769465  0.98647014  0.74385006     0.80800
N296        N  0.99142945  0.99855490  0.74449665    -0.77500
C297        C  0.00285312  0.02659790  0.74555204     0.83200
N298        N  0.03089371  0.04265332  0.74562261    -0.77500
C299        C  0.04759711  0.03109783  0.74508998     0.83300
N300        N  0.03581987  0.00292984  0.74423058    -0.79200
N301        N  0.85639249  0.65857225  0.71131088    -0.26700
N302        N  0.83471024  0.63824561  0.71978023    -0.34600
C303        C  0.82058416  0.61754377  0.70756377     0.01600
C304        C  0.83438686  0.62515767  0.69074934     0.07600
C305        C  0.85703118  0.65115913  0.69359220    -0.05500
H306        H  0.80213873  0.59814208  0.71082647     0.08300
H307        H  0.87240973  0.66405101  0.68341908     0.09500
Cu308      Cu  0.82737324  0.63855802  0.74797321     0.44200
Cu309      Cu  0.88252603  0.69627906  0.72378362     0.42000
Cu310      Cu  0.87992318  0.69810568  0.77364342     0.43900
N311        N  0.83179678  0.63963843  0.77660579    -0.34100
N312        N  0.85234265  0.66034428  0.78574725    -0.28400
C313        C  0.85163357  0.65284017  0.80363534    -0.04500
C314        C  0.82930829  0.62643634  0.80583700     0.07800
C315        C  0.81709333  0.61868973  0.78850531     0.01600
H316        H  0.86623873  0.66567204  0.81424485     0.09200
H317        H  0.79974582  0.59878237  0.78460853     0.08300
N318        N  0.89964585  0.73361198  0.75733622    -0.35600
N319        N  0.90015068  0.73278313  0.73895757    -0.27700
C320        C  0.91138007  0.75877877  0.73224063    -0.03000
C321        C  0.91828869  0.77691332  0.74710392     0.05600
C322        C  0.91084483  0.76026590  0.76282006     0.03700
H323        H  0.91378677  0.76399893  0.71758583     0.08800
H324        H  0.91223552  0.76693753  0.77713508     0.07700
N325        N  0.27997557  0.80889237  0.41735339    -0.26700
N326        N  0.28419668  0.82874526  0.40539070    -0.34600
C327        C  0.30662010  0.85251435  0.41096341     0.01600
C328        C  0.31716505  0.84722467  0.42710899     0.07600
C329        C  0.29940543  0.81934905  0.43078426    -0.05500
H330        H  0.31518016  0.87199863  0.40349520     0.08300
H331        H  0.30040079  0.80737812  0.44237920     0.09500
Cu332      Cu  0.25993556  0.82091938  0.38139591     0.44200
Cu333      Cu  0.24880339  0.76811123  0.41439606     0.42000
Cu334      Cu  0.21234694  0.74729618  0.37044952     0.43900
N335        N  0.23703796  0.80647539  0.35672818    -0.34100
N336        N  0.22160006  0.77990468  0.35225424    -0.28400
C337        C  0.21184301  0.77796671  0.33480238    -0.04500
C338        C  0.22114068  0.80452828  0.32811798     0.07800
C339        C  0.23684198  0.82206358  0.34238586     0.01600
H340        H  0.19832561  0.75864938  0.32772677     0.09200
H341        H  0.24786886  0.84454794  0.34218866     0.08300
N342        N  0.20319676  0.72065173  0.39296485    -0.35600
N343        N  0.21652481  0.72856723  0.40902292    -0.27700
C344        C  0.20478408  0.70747903  0.42118682    -0.03000
C345        C  0.18276941  0.68513115  0.41250527     0.05600
C346        C  0.18252267  0.69420833  0.39451747     0.03700
H347        H  0.21119987  0.70871276  0.43555852     0.08800
H348        H  0.16831883  0.68268058  0.38338381     0.07700
N349        N  0.82229432  0.27913684  0.58776124    -0.26700
N350        N  0.83423881  0.28988283  0.60393061    -0.34600
C351        C  0.85573209  0.31553294  0.60104860     0.01600
C352        C  0.85758429  0.32109821  0.58215456     0.07600
C353        C  0.83585095  0.29764615  0.57420875    -0.05500
H354        H  0.86963148  0.32873315  0.61184073     0.08300
H355        H  0.83028127  0.29411785  0.55962443     0.09500
Cu356      Cu  0.82300226  0.26840403  0.62895596     0.44200
Cu357      Cu  0.78914028  0.23934795  0.58424240     0.42000
Cu358      Cu  0.77538166  0.19486896  0.62340375     0.43900
N359        N  0.81369821  0.23960278  0.65009924    -0.34100
N360        N  0.79779485  0.21258056  0.64741930    -0.28400
C361        C  0.79889197  0.19896015  0.66257284    -0.04500
C362        C  0.81585914  0.21828689  0.67555403     0.07800
C363        C  0.82489271  0.24390532  0.66728493     0.01600
H364        H  0.78849114  0.17656993  0.66389980     0.09200
H365        H  0.83990350  0.26397705  0.67281253     0.08300
N366        N  0.75178332  0.18225991  0.59936121    -0.35600
N367        N  0.75684955  0.19869163  0.58482064    -0.27700
C368        C  0.73730004  0.18510364  0.57179148    -0.03000
C369        C  0.71903408  0.15877759  0.57846105     0.05600
C370        C  0.72878566  0.15782925  0.59605808     0.03700
H371        H  0.73593296  0.19413126  0.55873268     0.08800
H372        H  0.71963715  0.14077330  0.60585199     0.07700
N373        N  0.50067316  0.20664074  0.59730197    -0.26700
N374        N  0.49201927  0.19160057  0.61264841    -0.34600
C375        C  0.49605307  0.16958944  0.61090268     0.01600
C376        C  0.50795788  0.17093166  0.59363693     0.07600
C377        C  0.51043696  0.19474112  0.58545717    -0.05500
H378        H  0.48953877  0.15311693  0.62107741     0.08300
H379        H  0.51676166  0.20180706  0.57134071     0.09500
Cu380      Cu  0.47180540  0.20003944  0.63397589     0.44200
Cu381      Cu  0.49515385  0.24020870  0.59163306     0.42000
Cu382      Cu  0.45239625  0.25286140  0.62324366     0.43900
N383        N  0.44883126  0.21081804  0.65164225    -0.34100
N384        N  0.44050378  0.22879906  0.64718951    -0.28400
C385        C  0.42432426  0.22945840  0.66089162    -0.04500
C386        C  0.42284146  0.21146788  0.67476491     0.07800
C387        C  0.43865991  0.20005752  0.66852815     0.01600
H388        H  0.41461696  0.24233218  0.66084260     0.09200
H389        H  0.44176382  0.18440092  0.67544253     0.08300
N390        N  0.47019027  0.27654269  0.59961958    -0.35600
N391        N  0.48568615  0.27163738  0.58793206    -0.27700
C392        C  0.49478250  0.29083092  0.57435612    -0.03000
C393        C  0.48461047  0.30880012  0.57769902     0.05600
C394        C  0.46926655  0.29924034  0.59390432     0.03700
H395        H  0.50864308  0.29219059  0.56329547     0.08800
H396        H  0.45852577  0.30832688  0.60113856     0.07700
N397        N  0.54947040  0.80862018  0.40874300    -0.26700
N398        N  0.55610473  0.82413399  0.39357142    -0.34600
C399        C  0.55097206  0.84527478  0.39652536     0.01600
C400        C  0.54061466  0.84293955  0.41443485     0.07600
C401        C  0.54001115  0.81941373  0.42167333    -0.05500
H402        H  0.55613093  0.86205716  0.38679734     0.08300
H403        H  0.53406085  0.81123528  0.43562243     0.09500
Cu404      Cu  0.57526739  0.81770881  0.37060726     0.44200
Cu405      Cu  0.55558547  0.77477752  0.41226880     0.42000
Cu406      Cu  0.59626797  0.76517950  0.37758038     0.43900
N407        N  0.59965785  0.81021688  0.35195106    -0.34100
N408        N  0.60886045  0.79259702  0.35528134    -0.28400
C409        C  0.62583491  0.79421102  0.34138518    -0.04500
C410        C  0.62691534  0.81328179  0.32850089     0.07800
C411        C  0.61000496  0.82296092  0.33555135     0.01600
H412        H  0.63599952  0.78180146  0.34046822     0.09200
H413        H  0.60601138  0.83854594  0.32943429     0.08300
N414        N  0.57763617  0.73770653  0.39949045    -0.35600
N415        N  0.56282059  0.74138097  0.41242009    -0.27700
C416        C  0.55348216  0.72019134  0.42460490    -0.03000
C417        C  0.56295989  0.70225735  0.41915710     0.05600
C418        C  0.57795144  0.71396921  0.40300327     0.03700
H419        H  0.54093244  0.71815456  0.43666738     0.08800
H420        H  0.58798779  0.70571907  0.39418639     0.07700
C421        C  0.51737240  0.98213962  0.49283902     0.02900
C422        C  0.49203989  0.98193876  0.49609045     0.02800
C423        C  0.49162451  0.00156855  0.50829389    -0.17700
C424        C  0.51584472  0.02159721  0.51728197     0.02900
C425        C  0.54102901  0.02128872  0.51446643     0.02800
C426        C  0.54137989  0.00146763  0.50240507    -0.17700
H427        H  0.56065335  0.00118629  0.50036989     0.04900
H428        H  0.47222064  0.00146398  0.51063833     0.04900
N429        N  0.21760922  0.45477794  0.41556326    -0.26700
N430        N  0.19933200  0.44368012  0.40193897    -0.34600
C431        C  0.17576180  0.44337214  0.40698528     0.01600
C432        C  0.17936829  0.45461080  0.42472963     0.07600
C433        C  0.20627227  0.46174175  0.42963473    -0.05500
H434        H  0.15754108  0.43603140  0.39824222     0.08300
H435        H  0.21732070  0.47238805  0.44213214     0.09500
Cu436      Cu  0.20895181  0.43184878  0.37673194     0.44200
Cu437      Cu  0.25773658  0.46190997  0.41366582     0.42000
Cu438      Cu  0.28251599  0.45461433  0.36841091     0.43900
N439        N  0.22467888  0.42556452  0.35198583    -0.34100
N440        N  0.25138006  0.43541830  0.34844330    -0.28400
C441        C  0.25408647  0.42766484  0.33112190    -0.04500
C442        C  0.22784389  0.41174319  0.32361819     0.07800
C443        C  0.20975589  0.41076432  0.33722413     0.01600
H444        H  0.27355219  0.43170683  0.32496662     0.09200
H445        H  0.18731266  0.39964164  0.33658144     0.08300
N446        N  0.30673777  0.46617719  0.39248530    -0.35600
N447        N  0.29712667  0.46819983  0.40890966    -0.27700
C448        C  0.31655736  0.47378559  0.42194393    -0.03000
C449        C  0.33956404  0.47516764  0.41344541     0.05600
C450        C  0.33279199  0.47056050  0.39470323     0.03700
H451        H  0.31392114  0.47630293  0.43660684     0.08800
H452        H  0.34541483  0.46936180  0.38364741     0.07700
N453        N  0.83522375  0.55194579  0.58671581    -0.26700
N454        N  0.85373885  0.56659061  0.59960905    -0.34600
C455        C  0.87803586  0.56798740  0.59538346     0.01600
C456        C  0.87471977  0.55363410  0.57892137     0.07600
C457        C  0.84723353  0.54363208  0.57389964    -0.05500
H458        H  0.89635075  0.57775489  0.60410057     0.08300
H459        H  0.83660674  0.53092700  0.56192562     0.09500
Cu460      Cu  0.84439075  0.58217770  0.62291717     0.44200
Cu461      Cu  0.79428006  0.54300711  0.58771897     0.42000
Cu462      Cu  0.77184004  0.56217666  0.62989570     0.43900
N463        N  0.82950720  0.59248251  0.64615804    -0.34100
N464        N  0.80296281  0.58397109  0.64927109    -0.28400
C465        C  0.80046811  0.59358701  0.66595028    -0.04500
C466        C  0.82674304  0.60921242  0.67341066     0.07800
C467        C  0.84464709  0.60819091  0.66052553     0.01600
H468        H  0.78113183  0.59041712  0.67182396     0.09200
H469        H  0.86702472  0.61805857  0.66151841     0.08300
N470        N  0.74650336  0.54437794  0.60686209    -0.35600
N471        N  0.75479418  0.53743331  0.59152785    -0.27700
C472        C  0.73437970  0.52836734  0.57878665    -0.03000
C473        C  0.71200223  0.52951998  0.58642581     0.05600
C474        C  0.72056567  0.53995742  0.60423353     0.03700
H475        H  0.73639198  0.52288247  0.56464286     0.08800
H476        H  0.70911983  0.54480932  0.61435444     0.07700
C477        C  0.04599920  0.49846267  0.49293399     0.02900
C478        C  0.04757364  0.52460308  0.49039047     0.02800
C479        C  0.02856567  0.53033465  0.49950398    -0.17700
C480        C  0.00831011  0.51072515  0.51124371     0.02900
C481        C  0.00661909  0.48470109  0.51376289     0.02800
C482        C  0.02550756  0.47879610  0.50470009    -0.17700
H483        H  0.02409832  0.45869765  0.50670957     0.04900
H484        H  0.02961474  0.55028107  0.49751106     0.04900
C485        C  0.52539013  0.48281949  0.50746563     0.02900
C486        C  0.54978074  0.50882212  0.51003639     0.02800
C487        C  0.55229348  0.53227728  0.50072937    -0.17700
C488        C  0.53160936  0.53027295  0.48858024     0.02900
C489        C  0.50723227  0.50449544  0.48616655     0.02800
C490        C  0.50441610  0.48105230  0.49555420    -0.17700
H491        H  0.48556052  0.46129497  0.49374157     0.04900
H492        H  0.57074812  0.55229642  0.50275904     0.04900
C493        C  0.90394148  0.51516110  0.55199108    -0.01400
C494        C  0.93248075  0.53474308  0.55145126     0.07200
C495        C  0.94212634  0.56074520  0.55988508    -0.07400
C496        C  0.92376723  0.56754051  0.56875821     0.04600
C497        C  0.89514016  0.54781862  0.56953419    -0.14600
C498        C  0.88559803  0.52177065  0.56104337    -0.08000
C499        C  0.95240115  0.52900948  0.54135369     0.05500
C500        C  0.94976879  0.52546863  0.52197297    -0.09100
C501        C  0.96805069  0.51992239  0.51186615     0.00500
C502        C  0.98939514  0.51793330  0.52122138     0.00400
C503        C  0.99228729  0.52183006  0.54055662    -0.12600
C504        C  0.97397721  0.52732216  0.55068365     0.00900
C505        C  0.96411775  0.51565727  0.49202198     0.40200
C506        C  0.97731968  0.53047327  0.57063086     0.36800
C507        C  0.89307710  0.48812029  0.54345116     0.36500
C508        C  0.93473021  0.59543507  0.57583918     0.37300
N509        N  0.96094054  0.51223007  0.47611403    -0.43500
N510        N  0.98008548  0.53301419  0.58661378    -0.44000
N511        N  0.94369608  0.61790625  0.58135556    -0.41300
N512        N  0.88442593  0.46653354  0.53650767    -0.42800
H513        H  0.86373876  0.50637776  0.56159022     0.13400
H514        H  0.96401515  0.57604053  0.55909374     0.09900
H515        H  0.93330128  0.52695100  0.51476145     0.11000
H516        H  0.00875315  0.52032120  0.54774113     0.16800
C517        C  0.65225587  0.53986943  0.57099138    -0.01400
C518        C  0.63983600  0.51963925  0.55692916     0.07200
C519        C  0.65032672  0.50167701  0.55317407    -0.07400
C520        C  0.67315899  0.50382009  0.56302914     0.04600
C521        C  0.68629051  0.52471141  0.57672412    -0.14600
C522        C  0.67524527  0.54222029  0.58075466    -0.08000
C523        C  0.61657981  0.51745254  0.54541890     0.05500
C524        C  0.62160396  0.52519776  0.52664499    -0.09100
C525        C  0.60025804  0.52292676  0.51505164     0.00500
C526        C  0.57308252  0.51224819  0.52217819     0.00400
C527        C  0.56817579  0.50485463  0.54107411    -0.12600
C528        C  0.58965397  0.50733059  0.55269147     0.00900
C529        C  0.60662817  0.53099414  0.49576534     0.40200
C530        C  0.58357689  0.49904600  0.57193576     0.36800
C531        C  0.64232065  0.55898589  0.57522901     0.36500
C532        C  0.68190214  0.48363571  0.55925692     0.37300
N533        N  0.61162198  0.53755881  0.48032805    -0.43500
N534        N  0.57883889  0.49258432  0.58740290    -0.44000
N535        N  0.68873967  0.46731977  0.55624984    -0.41300
N536        N  0.63429333  0.57423958  0.57868471    -0.42800
H537        H  0.68508724  0.55839340  0.59117064     0.13400
H538        H  0.64053535  0.48585302  0.54251538     0.09900
H539        H  0.64232151  0.53302420  0.52104063     0.11000
H540        H  0.54751926  0.49710070  0.54674563     0.16800
C541        C  0.11328010  0.50271479  0.47711088    -0.01400
C542        C  0.10369274  0.47999412  0.46476588     0.07200
C543        C  0.07505069  0.46314716  0.46188138    -0.07400
C544        C  0.05600615  0.46881630  0.47092899     0.04600
C545        C  0.06554760  0.49131737  0.48349049    -0.14600
C546        C  0.09420887  0.50792618  0.48657254    -0.08000
C547        C  0.12316404  0.47372223  0.45441726     0.05500
C548        C  0.13916847  0.46467306  0.46425169    -0.09100
C549        C  0.15734017  0.45800864  0.45490425     0.00500
C550        C  0.15980048  0.46051577  0.43529358     0.00400
C551        C  0.14355566  0.46939704  0.42550339    -0.12600
C552        C  0.12543516  0.47606155  0.43487881     0.00900
C553        C  0.17218497  0.44747918  0.46572740     0.40200
C554        C  0.10986169  0.48593587  0.42423401     0.36800
C555        C  0.14255168  0.52176434  0.47954090     0.36500
C556        C  0.02691160  0.45214682  0.46639429     0.37300
N557        N  0.18401423  0.43898277  0.47442553    -0.43500
N558        N  0.09732172  0.49385220  0.41577398    -0.44000
N559        N  0.00359333  0.43893663  0.46272442    -0.41300
N560        N  0.16600276  0.53721196  0.48135454    -0.42800
H561        H  0.10169974  0.52538267  0.49608386     0.13400
H562        H  0.06761567  0.44582571  0.45225577     0.09900
H563        H  0.13715270  0.46246567  0.47926166     0.11000
H564        H  0.14540515  0.47168626  0.41049896     0.16800
C565        C  0.41586715  0.50409839  0.42431663    -0.01400
C566        C  0.41468473  0.49085410  0.44133832     0.07200
C567        C  0.38888779  0.47167273  0.44874188    -0.07400
C568        C  0.36428186  0.46570775  0.43959076     0.04600
C569        C  0.36524592  0.47944773  0.42277065    -0.14600
C570        C  0.39117124  0.49824119  0.41511805    -0.08000
C571        C  0.43988611  0.49618406  0.45180971     0.05500
C572        C  0.44553034  0.51047642  0.46878842    -0.09100
C573        C  0.46744136  0.51348526  0.48010585     0.00500
C574        C  0.48394345  0.50185189  0.47449371     0.00400
C575        C  0.47813979  0.48734929  0.45757527    -0.12600
C576        C  0.45653113  0.48479715  0.44608867     0.00900
C577        C  0.47192418  0.52761221  0.49773659     0.40200
C578        C  0.45140432  0.46999388  0.42868564     0.36800
C579        C  0.44210974  0.52410295  0.41631401     0.36500
C580        C  0.33845923  0.44446183  0.44738648     0.37300
N581        N  0.47553543  0.53893967  0.51186877    -0.43500
N582        N  0.44728884  0.45834174  0.41464599    -0.44000
N583        N  0.31784084  0.42731735  0.45364183    -0.41300
N584        N  0.46320102  0.54008330  0.40993782    -0.42800
H585        H  0.39210779  0.50883726  0.40220726     0.13400
H586        H  0.38803183  0.46109459  0.46165690     0.09900
H587        H  0.43244546  0.51885838  0.47333501     0.11000
H588        H  0.49061643  0.47814623  0.45331927     0.16800
C589        C  0.53954643  0.88676791  0.45456018    -0.01400
C590        C  0.52818883  0.90214333  0.44636395     0.07200
C591        C  0.52081352  0.89808130  0.42745446    -0.07400
C592        C  0.52427360  0.87872460  0.41675557     0.04600
C593        C  0.53578776  0.86336696  0.42496137    -0.14600
C594        C  0.54319391  0.86765044  0.44389863    -0.08000
C595        C  0.52377522  0.92236339  0.45744480     0.05500
C596        C  0.54023073  0.95087353  0.45387671    -0.09100
C597        C  0.53798344  0.97058160  0.46493783     0.00500
C598        C  0.51921163  0.96182619  0.48005639     0.00400
C599        C  0.50228966  0.93322215  0.48327862    -0.12600
C600        C  0.50410772  0.91356154  0.47195053     0.00900
C601        C  0.55478178  0.99962722  0.46029007     0.40200
C602        C  0.48532894  0.88442279  0.47524725     0.36800
C603        C  0.54806688  0.89058198  0.47384879     0.36500
C604        C  0.51447299  0.87408249  0.39775494     0.37300
N605        N  0.56819739  0.02290615  0.45655302    -0.43500
N606        N  0.47023463  0.86103357  0.47773915    -0.44000
N607        N  0.50637358  0.87038137  0.38257417    -0.41300
N608        N  0.55480939  0.89354761  0.48931964    -0.42800
H609        H  0.55234347  0.85634550  0.45040701     0.13400
H610        H  0.51182332  0.90968383  0.42114886     0.09900
H611        H  0.55509877  0.95773418  0.44256260     0.11000
H612        H  0.48774104  0.92621081  0.49477290     0.16800
C613        C  0.52752836  0.63621808  0.44796074    -0.01400
C614        C  0.54792044  0.62798669  0.44861611     0.07200
C615        C  0.57291840  0.64363683  0.43903442    -0.07400
C616        C  0.57820917  0.66764560  0.42924126     0.04600
C617        C  0.55805628  0.67637290  0.42880393    -0.14600
C618        C  0.53279086  0.66032778  0.43823435    -0.08000
C619        C  0.54372218  0.60309562  0.45914395     0.05500
C620        C  0.54362309  0.58105721  0.44938864    -0.09100
C621        C  0.54018225  0.55739541  0.45878529     0.00500
C622        C  0.53621244  0.55534304  0.47822476     0.00400
C623        C  0.53720775  0.57770145  0.48807110    -0.12600
C624        C  0.54105272  0.60154989  0.47872015     0.00900
C625        C  0.54202092  0.53603779  0.44835797     0.40200
C626        C  0.54308883  0.62447291  0.48955374     0.36800
C627        C  0.50090163  0.61988370  0.45685026     0.36500
C628        C  0.60509330  0.68348341  0.42064998     0.37300
N629        N  0.54364182  0.51893773  0.44008214    -0.43500
N630        N  0.54474009  0.64283747  0.49825846    -0.44000
N631        N  0.62670263  0.69604835  0.41379470    -0.41300
N632        N  0.47967419  0.60664545  0.46406087    -0.42800
H633        H  0.51694567  0.66644587  0.43785483     0.13400
H634        H  0.58863439  0.63732593  0.43953323     0.09900
H635        H  0.54645225  0.58247164  0.43441534     0.11000
H636        H  0.53495655  0.57646973  0.50308853     0.16800
C637        C  0.50434134  0.38342289  0.56805815    -0.01400
C638        C  0.50348714  0.38391327  0.54843703     0.07200
C639        C  0.49678415  0.35965773  0.53839831    -0.07400
C640        C  0.49048379  0.33492767  0.54761220     0.04600
C641        C  0.49094673  0.33430598  0.56726795    -0.14600
C642        C  0.49785118  0.35866464  0.57728795    -0.08000
C643        C  0.50903241  0.40932432  0.53806058     0.05500
C644        C  0.53162140  0.42135629  0.52578162    -0.09100
C645        C  0.53717153  0.44500573  0.51542558     0.00500
C646        C  0.52033183  0.45740772  0.51770614     0.00400
C647        C  0.49741159  0.44497895  0.52971593    -0.12600
C648        C  0.49143766  0.42093728  0.53966384     0.00900
C649        C  0.55940372  0.45530025  0.50200597     0.40200
C650        C  0.46655908  0.40792400  0.55083723     0.36800
C651        C  0.51229510  0.40815244  0.57898345     0.36500
C652        C  0.48225169  0.31026025  0.53656994     0.37300
N653        N  0.57718566  0.46326756  0.49121653    -0.43500
N654        N  0.44658134  0.39738805  0.55974241    -0.44000
N655        N  0.47555497  0.29053484  0.52764648    -0.41300
N656        N  0.51858113  0.42795450  0.58773032    -0.42800
H657        H  0.49861969  0.35846906  0.59237147     0.13400
H658        H  0.49594962  0.35994719  0.52331637     0.09900
H659        H  0.54474322  0.41201567  0.52413720     0.11000
H660        H  0.48400687  0.45402659  0.53120573     0.16800
C661        C  0.52192181  0.06515446  0.55981334    -0.01400
C662        C  0.51354552  0.08362549  0.55262150     0.07200
C663        C  0.50533444  0.08127281  0.53393069    -0.07400
C664        C  0.50537017  0.06089076  0.52237918     0.04600
C665        C  0.51426923  0.04265723  0.52943436    -0.14600
C666        C  0.52218924  0.04487066  0.54824033    -0.08000
C667        C  0.51327425  0.10570346  0.56425276     0.05500
C668        C  0.53252381  0.13355730  0.56050327    -0.09100
C669        C  0.53209917  0.15513106  0.57047847     0.00500
C670        C  0.51166549  0.14894408  0.58431382     0.00400
C671        C  0.49302356  0.12093750  0.58843362    -0.12600
C672        C  0.49363414  0.09942216  0.57853146     0.00900
C673        C  0.55333900  0.18328051  0.56650104     0.40200
C674        C  0.47319813  0.07107731  0.58276292     0.36800
C675        C  0.53056901  0.06688770  0.57896557     0.36500
C676        C  0.49689698  0.05963415  0.50320394     0.37300
N677        N  0.57044618  0.20579473  0.56327839    -0.43500
N678        N  0.45687421  0.04834370  0.58618037    -0.44000
N679        N  0.49003628  0.05854159  0.48785133    -0.41300
N680        N  0.53726658  0.06830727  0.59437938    -0.42800
H681        H  0.52866338  0.03075040  0.55387810     0.13400
H682        H  0.49881069  0.09541026  0.52837179     0.09900
H683        H  0.54793137  0.13842787  0.54970937     0.11000
H684        H  0.47715255  0.11573364  0.59891508     0.16800
C685        C  0.90811176  0.39691869  0.57245428    -0.01400
C686        C  0.91879521  0.39550213  0.55494531     0.07200
C687        C  0.90978724  0.36957288  0.54658367    -0.07400
C688        C  0.89014484  0.34513027  0.55521746     0.04600
C689        C  0.87882637  0.34640256  0.57258155    -0.14600
C690        C  0.88823838  0.37242851  0.58111367    -0.08000
C691        C  0.94033634  0.42042188  0.54523729     0.05500
C692        C  0.96706287  0.43488277  0.55297989    -0.09100
C693        C  0.98896020  0.45598214  0.54296163     0.00500
C694        C  0.98410223  0.46287301  0.52498445     0.00400
C695        C  0.95721285  0.44915008  0.51751572    -0.12600
C696        C  0.93536222  0.42795731  0.52745228     0.00900
C697        C  0.01621239  0.47025576  0.55131414     0.40200
C698        C  0.90810664  0.41394409  0.51905035     0.36800
C699        C  0.91689545  0.42320879  0.58161056     0.36500
C700        C  0.88340930  0.31912004  0.54636075     0.37300
N701        N  0.03806886  0.48177877  0.55800050    -0.43500
N702        N  0.88627681  0.40260508  0.51230920    -0.44000
N703        N  0.87830786  0.29841950  0.53915413    -0.41300
N704        N  0.92396600  0.44426788  0.58897237    -0.42800
H705        H  0.87981433  0.37367689  0.59446764     0.13400
H706        H  0.91861188  0.36843076  0.53335627     0.09900
H707        H  0.97098622  0.42903536  0.56659982     0.11000
H708        H  0.95343313  0.45475758  0.50377011     0.16800
C709        C  0.60349699  0.04850152  0.54655342    -0.01400
C710        C  0.61665159  0.07739800  0.54333872     0.07200
C711        C  0.60526713  0.08777871  0.53020976    -0.07400
C712        C  0.58093732  0.06994762  0.52049967     0.04600
C713        C  0.56726664  0.04110650  0.52409678    -0.14600
C714        C  0.57894241  0.03066985  0.53701344    -0.08000
C715        C  0.64295936  0.09718706  0.55282084     0.05500
C716        C  0.66707185  0.11157912  0.54208280    -0.09100
C717        C  0.69213151  0.13133370  0.55018207     0.00500
C718        C  0.69332225  0.13712300  0.56942127     0.00400
C719        C  0.66928154  0.12228212  0.58023926    -0.12600
C720        C  0.64417394  0.10260987  0.57209338     0.00900
C721        C  0.71647845  0.14459756  0.53853699     0.40200
C722        C  0.61974648  0.08904487  0.58364512     0.36800
C723        C  0.61529584  0.03665141  0.55909775     0.36500
C724        C  0.57109241  0.08168066  0.50644501     0.32700
N725        N  0.73602047  0.15519525  0.52922162    -0.43500
N726        N  0.60020632  0.07818348  0.59293938    -0.44000
N727        N  0.56350193  0.09135645  0.49515679    -0.41300
N728        N  0.62481371  0.02718112  0.56912642    -0.42800
H729        H  0.56880663  0.00848759  0.53962901     0.13400
H730        H  0.61562318  0.10992880  0.52742336     0.09900
H731        H  0.66627879  0.10729713  0.52729297     0.11000
H732        H  0.66988835  0.12663683  0.59500215     0.16800
C733        C  0.43951077  0.94608669  0.45744459    -0.01400
C734        C  0.41624470  0.92596983  0.46732755     0.07200
C735        C  0.41815738  0.92394119  0.48669000    -0.07400
C736        C  0.44265098  0.94187514  0.49626580     0.04600
C737        C  0.46584264  0.96220667  0.48639889    -0.14600
C738        C  0.46400541  0.96401675  0.46700530    -0.08000
C739        C  0.39025629  0.90595276  0.45757123     0.05500
C740        C  0.38405418  0.87825066  0.45591097    -0.09100
C741        C  0.36044492  0.85879589  0.44619287     0.00500
C742        C  0.34237006  0.86699410  0.43780860     0.00400
C743        C  0.34856854  0.89480415  0.43967124    -0.12600
C744        C  0.37206441  0.91413629  0.44962625     0.00900
C745        C  0.35620095  0.83096150  0.44445136     0.40200
C746        C  0.37672725  0.94204347  0.45200212     0.36800
C747        C  0.43888859  0.94822506  0.43744310     0.36500
C748        C  0.44385904  0.93842367  0.51611258     0.37300
N749        N  0.35300231  0.80869913  0.44320293    -0.43500
N750        N  0.38041447  0.96437176  0.45406449    -0.44000
N751        N  0.44486113  0.93559223  0.53200969    -0.41300
N752        N  0.43834048  0.94987313  0.42140271    -0.42800
H753        H  0.48178343  0.97949030  0.45933414     0.13400
H754        H  0.40049253  0.90820760  0.49430926     0.09900
H755        H  0.39804472  0.87191860  0.46199006     0.11000
H756        H  0.33475894  0.90136334  0.43361106     0.16800
C757        C  0.08865068  0.56118649  0.44729796    -0.01400
C758        C  0.10758051  0.58766371  0.45441892     0.07200
C759        C  0.10703549  0.59306351  0.47345384    -0.07400
C760        C  0.08800804  0.57264171  0.48537645     0.04600
C761        C  0.06870732  0.54633989  0.47821283    -0.14600
C762        C  0.06928651  0.54083072  0.45918762    -0.08000
C763        C  0.12733532  0.61056255  0.44225650     0.05500
C764        C  0.11685171  0.62024290  0.42804787    -0.09100
C765        C  0.13446991  0.64380295  0.41760817     0.00500
C766        C  0.16330111  0.65828104  0.42146292     0.00400
C767        C  0.17378733  0.64790489  0.43529989    -0.12600
C768        C  0.15616041  0.62426787  0.44561535     0.00900
C769        C  0.12193599  0.65339800  0.40395511     0.40200
C770        C  0.16808806  0.61448861  0.45962069     0.36800
C771        C  0.08897096  0.55438658  0.42793470     0.36500
C772        C  0.08894905  0.57899783  0.50495997     0.37300
N773        N  0.11158784  0.66080707  0.39303087    -0.43500
N774        N  0.17755890  0.60661201  0.47087112    -0.44000
N775        N  0.08960266  0.58399985  0.52065718    -0.41300
N776        N  0.08927959  0.54902739  0.41239656    -0.42800
H777        H  0.05449485  0.52062787  0.45362234     0.13400
H778        H  0.12142176  0.61343722  0.47898629     0.09900
H779        H  0.09463590  0.60993267  0.42557741     0.11000
H780        H  0.19587851  0.65847776  0.43822585     0.16800
C781        C  0.95414244  0.91065760  0.75149130    -0.01400
C782        C  0.96768890  0.89667266  0.74453729     0.07200
C783        C  0.99435599  0.91214245  0.73697951    -0.07400
C784        C  0.00782703  0.94125817  0.73646433     0.04600
C785        C  0.99446698  0.95552472  0.74364799    -0.14600
C786        C  0.96746878  0.93973795  0.75094337    -0.08000
C787        C  0.95474681  0.86594328  0.74548053     0.05500
C788        C  0.93214728  0.84938686  0.73386410    -0.09100
C789        C  0.91986999  0.82034009  0.73417816     0.00500
C790        C  0.93015519  0.80745516  0.74642293     0.00400
C791        C  0.95235257  0.82406709  0.75831889    -0.12600
C792        C  0.96483790  0.85308364  0.75779674     0.00900
C793        C  0.89614757  0.80427606  0.72232130     0.40200
C794        C  0.98791140  0.86931940  0.77008614     0.36800
C795        C  0.92696919  0.89563053  0.75985722     0.36500
C796        C  0.03499014  0.95563465  0.72805606     0.37300
N797        N  0.87711018  0.79139073  0.71284320    -0.43500
N798        N  0.00647732  0.88245343  0.77985885    -0.44000
N799        N  0.05676635  0.96696355  0.72129534    -0.41300
N800        N  0.90523805  0.88358477  0.76661967    -0.42800
H801        H  0.95683540  0.95011818  0.75662692     0.13400
H802        H  0.00471354  0.90135107  0.73149821     0.09900
H803        H  0.92418580  0.85921705  0.72449290     0.11000
H804        H  0.96030725  0.81436093  0.76780227     0.16800
C805        C  0.93400921  0.09553533  0.73305862    -0.01400
C806        C  0.93119304  0.07550687  0.74626564     0.07200
C807        C  0.91071903  0.06723199  0.76001756    -0.07400
C808        C  0.89332899  0.07897443  0.76095386     0.04600
C809        C  0.89660089  0.09973479  0.74804412    -0.14600
C810        C  0.91683519  0.10747061  0.73403805    -0.08000
C811        C  0.94939189  0.06287089  0.74593250     0.05500
C812        C  0.97480568  0.07610843  0.75541839    -0.09100
C813        C  0.99254753  0.06475120  0.75554140     0.00500
C814        C  0.98479878  0.03951059  0.74602569     0.00400
C815        C  0.95915715  0.02628790  0.73661863    -0.12600
C816        C  0.94160703  0.03785255  0.73640700     0.00900
C817        C  0.01803561  0.07900753  0.76608725     0.40200
C818        C  0.91587301  0.02397946  0.72611856     0.36800
C819        C  0.95436946  0.10409240  0.71837993     0.36500
C820        C  0.87161348  0.06836634  0.77476628     0.37300
N821        N  0.03846074  0.09044634  0.77453519    -0.43500
N822        N  0.89527731  0.01300327  0.71782381    -0.44000
N823        N  0.85417473  0.05962742  0.78582545    -0.41300
N824        N  0.97062719  0.11088168  0.70657889    -0.42800
H825        H  0.91966812  0.12328462  0.72398743     0.13400
H826        H  0.90823917  0.05141481  0.76997837     0.09900
H827        H  0.98071061  0.09532901  0.76282336     0.11000
H828        H  0.95296874  0.00707752  0.72913437     0.16800
C829        C  0.18455408  0.10061753  0.73261299    -0.01400
C830        C  0.16692232  0.10610764  0.74381682     0.07200
C831        C  0.17855211  0.12997246  0.75508141    -0.07400
C832        C  0.20739351  0.14780873  0.75569953     0.04600
C833        C  0.22517725  0.14163522  0.74512509    -0.14600
C834        C  0.21337379  0.11823327  0.73338358    -0.08000
C835        C  0.13635193  0.08701108  0.74402747     0.05500
C836        C  0.12586443  0.06018478  0.75142510    -0.09100
C837        C  0.09720350  0.04146459  0.75185127     0.00500
C838        C  0.07833235  0.04955910  0.74475906     0.00400
C839        C  0.08905548  0.07651081  0.73735745    -0.12600
C840        C  0.11766551  0.09507978  0.73687712     0.00900
C841        C  0.08792821  0.01459683  0.76026564     0.40200
C842        C  0.12738621  0.12200869  0.72844747     0.36800
C843        C  0.17338080  0.07741302  0.71985948     0.36500
C844        C  0.21811744  0.17303675  0.76649565     0.37300
N845        N  0.08062662  0.99309819  0.76703783    -0.43500
N846        N  0.13509730  0.14352980  0.72160978    -0.44000
N847        N  0.22680896  0.19344252  0.77496224    -0.41300
N848        N  0.16422569  0.05889024  0.70957909    -0.42800
H849        H  0.22670168  0.11346085  0.72493449     0.13400
H850        H  0.16503900  0.13465784  0.76340077     0.09900
H851        H  0.14018772  0.05394045  0.75702531     0.11000
H852        H  0.07504838  0.08309221  0.73166734     0.16800
C853        C  0.52307133  0.93692032  0.03478227    -0.01400
C854        C  0.54121845  0.94589205  0.05023467     0.07200
C855        C  0.55453957  0.97404110  0.05531701    -0.07400
C856        C  0.55028802  0.99324316  0.04508689     0.04600
C857        C  0.53222378  0.98426508  0.02956609    -0.14600
C858        C  0.51867300  0.95606291  0.02464240    -0.08000
C859        C  0.54663513  0.92614581  0.06110011     0.05500
C860        C  0.56095570  0.91407420  0.05261231    -0.09100
C861        C  0.56498452  0.89408722  0.06196533     0.00500
C862        C  0.55426037  0.88560634  0.08010373     0.00400
C863        C  0.54109762  0.89866380  0.08891302    -0.12600
C864        C  0.53719850  0.91877485  0.07956132     0.00900
C865        C  0.58111861  0.88341823  0.05293882     0.40200
C866        C  0.52255096  0.93082322  0.08888992     0.36800
C867        C  0.50867106  0.90813984  0.02911825     0.36500
C868        C  0.56453037  0.02199859  0.05082973     0.37300
N869        N  0.59421299  0.87496933  0.04581735    -0.43500
N870        N  0.51084834  0.94056932  0.09631474    -0.44000
N871        N  0.57590931  0.04503603  0.05545807    -0.41300
N872        N  0.49718157  0.88507385  0.02456296    -0.42800
H873        H  0.50504910  0.94909200  0.01260532     0.13400
H874        H  0.56850094  0.98103601  0.06718199     0.09900
H875        H  0.56889652  0.92023466  0.03859638     0.11000
H876        H  0.53304160  0.89249285  0.10289896     0.16800
C877        C  0.52131820  0.08104004  0.95050908    -0.01400
C878        C  0.51435292  0.10018698  0.95839832     0.07200
C879        C  0.51029865  0.09982711  0.97769576    -0.07400
C880        C  0.51328029  0.08096622  0.98914176     0.04600
C881        C  0.52047401  0.06196176  0.98130471    -0.14600
C882        C  0.52421471  0.06207711  0.96196701    -0.08000
C883        C  0.51026330  0.12018531  0.94679768     0.05500
C884        C  0.48844272  0.10993982  0.93385095    -0.09100
C885        C  0.48275842  0.12800340  0.92342285     0.00500
C886        C  0.49929911  0.15708495  0.92575378     0.00400
C887        C  0.52116825  0.16727383  0.93876095    -0.12600
C888        C  0.52676980  0.14915796  0.94920595     0.00900
C889        C  0.45873470  0.11595466  0.91139118     0.40200
C890        C  0.54976765  0.16073225  0.96214566     0.36800
C891        C  0.52603061  0.08078773  0.93076623     0.36500
C892        C  0.50900951  0.08158799  0.00892586     0.37300
N893        N  0.43937394  0.10618508  0.90182634    -0.43500
N894        N  0.56815636  0.16990411  0.97254149    -0.44000
N895        N  0.50544680  0.08185048  0.02477778    -0.41300
N896        N  0.52980366  0.08059877  0.91493821    -0.42800
H897        H  0.52921237  0.04720697  0.95579470     0.13400
H898        H  0.50459286  0.11424468  0.98381235     0.09900
H899        H  0.47531150  0.08766102  0.93226061     0.11000
H900        H  0.53406977  0.18950488  0.94071218     0.16800
C901        C  0.38241692  0.92535491  0.05829735    -0.01400
C902        C  0.40155836  0.91925344  0.04952856     0.07200
C903        C  0.39674865  0.89186920  0.04966749    -0.07400
C904        C  0.37346048  0.87065610  0.05856589     0.04600
C905        C  0.35428939  0.87674632  0.06747311    -0.14600
C906        C  0.35902666  0.90415929  0.06709730    -0.08000
C907        C  0.42717240  0.94114191  0.04057662     0.05500
C908        C  0.44754745  0.96239806  0.05160130    -0.09100
C909        C  0.47241893  0.98283613  0.04371130     0.00500
C910        C  0.47726942  0.98185583  0.02453027     0.00400
C911        C  0.45676807  0.96082602  0.01350063    -0.12600
C912        C  0.43186064  0.94056023  0.02133386     0.00900
C913        C  0.49210921  0.00503677  0.05541916     0.40200
C914        C  0.41115047  0.91979820  0.00927098     0.36800
C915        C  0.38621924  0.95313286  0.05838696     0.36500
C916        C  0.37088617  0.84338590  0.05925461     0.37300
N917        N  0.50762929  0.02284538  0.06492257    -0.43500
N918        N  0.39456085  0.90322006  0.99956288    -0.44000
N919        N  0.36908127  0.82162847  0.05978045    -0.41300
N920        N  0.38919651  0.97537096  0.05857479    -0.42800
H921        H  0.34439641  0.90909751  0.07373114     0.13400
H922        H  0.41166873  0.88720912  0.04315691     0.09900
H923        H  0.44398455  0.96297816  0.06639512     0.11000
H924        H  0.46026765  0.96032633  0.99868719     0.16800
C925        C  0.53616603  0.61390309  0.01790927    -0.01400
C926        C  0.54374661  0.61778356  0.03688390     0.07200
C927        C  0.54774106  0.59771412  0.04621945    -0.07400
C928        C  0.54433823  0.57399994  0.03691384     0.04600
C929        C  0.53659010  0.57003496  0.01798664    -0.14600
C930        C  0.53269412  0.59012391  0.00860246    -0.08000
C931        C  0.54784584  0.64269092  0.04730368     0.05500
C932        C  0.52473627  0.64571738  0.05150834    -0.09100
C933        C  0.52767637  0.66832111  0.06206993     0.00500
C934        C  0.55413444  0.68824624  0.06871736     0.00400
C935        C  0.57724471  0.68520549  0.06444497    -0.12600
C936        C  0.57433389  0.66281786  0.05365833     0.00900
C937        C  0.50307135  0.66984042  0.06666389     0.40200
C938        C  0.59883496  0.66123036  0.04882498     0.36800
C939        C  0.53255896  0.63437253  0.00764914     0.36500
C940        C  0.54944702  0.55432731  0.04695024     0.37300
N941        N  0.48334737  0.67102787  0.07040195    -0.43500
N942        N  0.61839902  0.65992409  0.04479283    -0.44000
N943        N  0.55356693  0.53859536  0.05503410    -0.41300
N944        N  0.52973833  0.65084449  0.99944678    -0.42800
H945        H  0.52697470  0.58720137  0.99399288     0.13400
H946        H  0.55365051  0.60069027  0.06079546     0.09900
H947        H  0.50430610  0.63012319  0.04676935     0.11000
H948        H  0.59767897  0.70060038  0.06930574     0.16800
C949        C  0.52173505  0.38942104  0.94576391    -0.01400
C950        C  0.50320398  0.39998608  0.94620186     0.07200
C951        C  0.47759255  0.38562051  0.93703089    -0.07400
C952        C  0.46994050  0.36057466  0.92779928     0.04600
C953        C  0.48838991  0.34976187  0.92745329    -0.14600
C954        C  0.51421726  0.36449232  0.93646360    -0.08000
C955        C  0.50965176  0.42546413  0.95671619     0.05500
C956        C  0.51409021  0.44924823  0.94693033    -0.09100
C957        C  0.51938082  0.47345557  0.95644505     0.00500
C958        C  0.52074291  0.47413179  0.97607815     0.00400
C959        C  0.51596924  0.45017865  0.98583993    -0.12600
C960        C  0.51024683  0.42587308  0.97633475     0.00900
C961        C  0.52198839  0.49677148  0.94580376     0.40200
C962        C  0.50400099  0.40129451  0.98696358     0.36800
C963        C  0.54857937  0.40386523  0.95469445     0.36500
C964        C  0.44243509  0.34572323  0.91985606     0.37300
N965        N  0.52389231  0.51530921  0.93717051    -0.43500
N966        N  0.49886179  0.38151036  0.99541534    -0.44000
N967        N  0.42031357  0.33385445  0.91358486    -0.41300
N968        N  0.57005260  0.41537321  0.96190463    -0.42800
H969        H  0.52869180  0.35660262  0.93616772     0.13400
H970        H  0.46322430  0.39364373  0.93754962     0.09900
H971        H  0.51303516  0.44873002  0.93184873     0.11000
H972        H  0.51648892  0.45045028  0.00093426     0.16800
C973        C  0.13897455  0.65648421  0.04806992    -0.01400
C974        C  0.12641746  0.62916430  0.05511920     0.07200
C975        C  0.13396465  0.62441948  0.07284844    -0.07400
C976        C  0.15407082  0.64642109  0.08345479     0.04600
C977        C  0.16698938  0.67369289  0.07625208    -0.14600
C978        C  0.15918226  0.67841203  0.05859250    -0.08000
C979        C  0.10617507  0.60518614  0.04388985     0.05500
C980        C  0.11514968  0.59867010  0.02733162    -0.09100
C981        C  0.09664601  0.57652729  0.01614444     0.00500
C982        C  0.06876698  0.56018075  0.02170099     0.00400
C983        C  0.05974052  0.56670602  0.03822315    -0.12600
C984        C  0.07818655  0.58905800  0.04932025     0.00900
C985        C  0.10638395  0.57172337  0.99865499     0.40200
C986        C  0.06775240  0.59577138  0.06578696     0.36800
C987        C  0.13111330  0.66256152  0.03022235     0.36500
C988        C  0.16221061  0.64025589  0.10115684     0.37300
N989        N  0.11417459  0.56805877  0.98456637    -0.43500
N990        N  0.05939564  0.60127452  0.07893824    -0.44000
N991        N  0.16886162  0.63534668  0.11531373    -0.41300
N992        N  0.12477175  0.66744295  0.01594124    -0.42800
H993        H  0.16877322  0.69935569  0.05304312     0.13400
H994        H  0.12453632  0.60338221  0.07821909     0.09900
H995        H  0.13661490  0.61117618  0.02303925     0.11000
H996        H  0.03817183  0.55442627  0.04234365     0.16800
C997        C  0.92999144  0.53887327  0.92549848    -0.01400
C998        C  0.93247446  0.54113911  0.94504497     0.07200
C999        C  0.91518566  0.54829575  0.95508721    -0.07400
C1000       C  0.89504035  0.55239278  0.94604404     0.04600
C1001       C  0.89191075  0.54930339  0.92652213    -0.14600
C1002       C  0.90995896  0.54317333  0.91640098    -0.08000
C1003       C  0.95225445  0.53530716  0.95549812     0.05500
C1004       C  0.98087573  0.55375777  0.95420137    -0.09100
C1005       C  0.99987249  0.54939673  0.96463094     0.00500
C1006       C  0.99022850  0.52638312  0.97683123     0.00400
C1007       C  0.96151490  0.50817691  0.97819512    -0.12600
C1008       C  0.94265751  0.51208248  0.96737000     0.00900
C1009       C  0.02915131  0.56853347  0.96233333     0.40200
C1010       C  0.91360197  0.49144529  0.96813245     0.36800
C1011       C  0.94678252  0.53082010  0.91460746     0.36500
C1012       C  0.87852922  0.56063640  0.95708241     0.37300
N1013       N  0.05264153  0.58385708  0.96061086    -0.43500
N1014       N  0.89034747  0.47477622  0.96854099    -0.44000
N1015       N  0.86536443  0.56732353  0.96594100    -0.41300
N1016       N  0.96009571  0.52421079  0.90584589    -0.42800
H1017       H  0.90778194  0.54079085  0.90140642     0.13400
H1018       H  0.91734875  0.55048988  0.97009605     0.09900
H1019       H  0.98835254  0.57163056  0.94505936     0.11000
H1020       H  0.95375942  0.49068456  0.98766462     0.16800
C1021       C  0.60661040  0.51025869  0.96622293    -0.01400
C1022       C  0.61877741  0.53071916  0.95230595     0.07200
C1023       C  0.60886845  0.54935801  0.94934122    -0.07400
C1024       C  0.58710070  0.54791665  0.96012885     0.04600
C1025       C  0.57483037  0.52741864  0.97414928    -0.14600
C1026       C  0.58504268  0.50892357  0.97711540    -0.08000
C1027       C  0.64233386  0.53320844  0.94107337     0.05500
C1028       C  0.63743596  0.52218865  0.92300598    -0.09100
C1029       C  0.65896866  0.52249291  0.91254664     0.00500
C1030       C  0.68583432  0.53362023  0.92035740     0.00400
C1031       C  0.69067056  0.54498681  0.93835763    -0.12600
C1032       C  0.66931194  0.54521631  0.94860010     0.00900
C1033       C  0.65268454  0.51033562  0.89416748     0.40200
C1034       C  0.67560571  0.55838916  0.96666053     0.36800
C1035       C  0.61583630  0.49027597  0.96935640     0.36500
C1036       C  0.57716599  0.56711739  0.95612964     0.37300
N1037       N  0.64765156  0.50065797  0.87941383    -0.43500
N1038       N  0.68067591  0.56918106  0.98105896    -0.44000
N1039       N  0.56912640  0.58244641  0.95292030    -0.41300
N1040       N  0.62339433  0.47435921  0.97170700    -0.42800
H1041       H  0.57607549  0.49332164  0.98795167     0.13400
H1042       H  0.61821117  0.56507727  0.93859929     0.09900
H1043       H  0.61665619  0.51293944  0.91720704     0.11000
H1044       H  0.71134314  0.55420453  0.94432274     0.16800
C1045       C  0.46057061  0.49942831  0.05089369    -0.01400
C1046       C  0.43897982  0.50373241  0.04426091     0.07200
C1047       C  0.44091560  0.51469712  0.02633127    -0.07400
C1048       C  0.46373274  0.52091732  0.01491959     0.04600
C1049       C  0.48485836  0.51579380  0.02135441    -0.14600
C1050       C  0.48302324  0.50498412  0.03929049    -0.08000
C1051       C  0.41390372  0.49647547  0.05557588     0.05500
C1052       C  0.41630441  0.51178500  0.07173443    -0.09100
C1053       C  0.39271956  0.50661123  0.08202208     0.00500
C1054       C  0.36619790  0.48609329  0.07593964     0.00400
C1055       C  0.36392795  0.47037663  0.06003709    -0.12600
C1056       C  0.38749603  0.47513322  0.05000269     0.00900
C1057       C  0.39613530  0.52360182  0.09813153     0.40200
C1058       C  0.38414895  0.45750233  0.03425873     0.36800
C1059       C  0.45981853  0.48879081  0.06936768     0.36500
C1060       C  0.46484523  0.53206266  0.99656378     0.37300
N1061       N  0.39894044  0.53728621  0.11102857    -0.43500
N1062       N  0.38143707  0.44320429  0.02174034    -0.44000
N1063       N  0.46577978  0.54107817  0.98186913    -0.41300
N1064       N  0.45930726  0.48047834  0.08423675    -0.42800
H1065       H  0.49900692  0.50056346  0.04413855     0.13400
H1066       H  0.42446156  0.51825868  0.02123431     0.09900
H1067       H  0.43658478  0.52820333  0.07606755     0.11000
H1068       H  0.34363161  0.45425663  0.05546929     0.16800
C1069       C  0.15414886  0.50396272  0.04729124    -0.01400
C1070       C  0.12527747  0.48578889  0.04675169     0.07200
C1071       C  0.11434392  0.45928929  0.05469253    -0.07400
C1072       C  0.13174143  0.45078700  0.06324356     0.04600
C1073       C  0.16069476  0.46917585  0.06416187    -0.14600
C1074       C  0.17157865  0.49558274  0.05592123    -0.08000
C1075       C  0.10627052  0.49356345  0.03719084     0.05500
C1076       C  0.10529736  0.49307437  0.01769611    -0.09100
C1077       C  0.08712203  0.49945790  0.00806881     0.00500
C1078       C  0.06937245  0.50644653  0.01801045     0.00400
C1079       C  0.07067244  0.50729924  0.03755931    -0.12600
C1080       C  0.08903530  0.50107084  0.04716902     0.00900
C1081       C  0.08736374  0.49906733  0.98796703     0.40200
C1082       C  0.09014813  0.50285312  0.06722728     0.36800
C1083       C  0.16618156  0.53147493  0.03936147     0.36500
C1084       C  0.11948897  0.42262139  0.07004752     0.37300
N1085       N  0.08754385  0.49876667  0.97185830    -0.43500
N1086       N  0.09114869  0.50443133  0.08330439    -0.44000
N1087       N  0.10969045  0.39999052  0.07539994    -0.41300
N1088       N  0.17567188  0.55351641  0.03300755    -0.42800
H1089       H  0.19371587  0.50995446  0.05652297     0.13400
H1090       H  0.09217849  0.44504944  0.05391349     0.09900
H1091       H  0.11870985  0.48752802  0.00999301     0.11000
H1092       H  0.05705767  0.51247397  0.04533450     0.16800
C1093       C  0.93398558  0.39024231  0.92910598    -0.01400
C1094       C  0.92759112  0.40694929  0.94064572     0.07200
C1095       C  0.90003514  0.40151186  0.94170953    -0.07400
C1096       C  0.87874030  0.37894635  0.93221663     0.04600
C1097       C  0.88492608  0.36136440  0.92142387    -0.14600
C1098       C  0.91270159  0.36771439  0.91957368    -0.08000
C1099       C  0.94901370  0.42926324  0.95245729     0.05500
C1100       C  0.97155925  0.45220998  0.94406426    -0.09100
C1101       C  0.99202370  0.47346686  0.95495593     0.00500
C1102       C  0.98962102  0.47221372  0.97449887     0.00400
C1103       C  0.96755405  0.44898708  0.98289914    -0.12600
C1104       C  0.94734338  0.42754807  0.97206789     0.00900
C1105       C  0.01582112  0.49583003  0.94592749     0.40200
C1106       C  0.92553352  0.40360587  0.98137740     0.36800
C1107       C  0.96200310  0.39500094  0.92752148     0.36500
C1108       C  0.85088412  0.37473502  0.93337278     0.37300
N1109       N  0.03513875  0.51362184  0.93880053    -0.43500
N1110       N  0.90810895  0.38433317  0.98879589    -0.44000
N1111       N  0.82859736  0.37149397  0.93420184    -0.41300
N1112       N  0.98448310  0.39889269  0.92623626    -0.42800
H1113       H  0.91768023  0.35439362  0.91125962     0.13400
H1114       H  0.89513689  0.41472228  0.95022107     0.09900
H1115       H  0.97322308  0.45339852  0.92901654     0.11000
H1116       H  0.96599465  0.44780561  0.99795716     0.16800
C1117       C  0.61491511  0.10788873  0.98219605    -0.01400
C1118       C  0.62304933  0.10002595  0.96566250     0.07200
C1119       C  0.60677038  0.07288161  0.95885554    -0.07400
C1120       C  0.58266861  0.05374982  0.96819003     0.04600
C1121       C  0.57419347  0.06191644  0.98438375    -0.14600
C1122       C  0.59037941  0.08897590  0.99122719    -0.08000
C1123       C  0.64901605  0.11934306  0.95566788     0.05500
C1124       C  0.67019524  0.11244145  0.95414066    -0.09100
C1125       C  0.69508666  0.13010331  0.94495970     0.00500
C1126       C  0.69924823  0.15540997  0.93735537     0.00400
C1127       C  0.67802194  0.16225178  0.93878804    -0.12600
C1128       C  0.65283776  0.14423545  0.94752566     0.00900
C1129       C  0.71637126  0.12224417  0.94406473     0.40200
C1130       C  0.63079510  0.15108688  0.94723705     0.36800
C1131       C  0.63219511  0.13462157  0.99074300     0.36500
C1132       C  0.56701857  0.02581492  0.96099198     0.37300
N1133       N  0.73342217  0.11592485  0.94336005    -0.43500
N1134       N  0.61305468  0.15646176  0.94688176    -0.44000
N1135       N  0.55449268  0.00341238  0.95524574    -0.41300
N1136       N  0.64613811  0.15594423  0.99770652    -0.42800
H1137       H  0.58420511  0.09503876  0.00393098     0.13400
H1138       H  0.61307790  0.06658161  0.94631514     0.09900
H1139       H  0.66731847  0.09326077  0.96026956     0.11000
H1140       H  0.68086684  0.18140061  0.93262490     0.16800
C1141       C  0.12959305  0.95157903  0.26395324    -0.01400
C1142       C  0.10543134  0.94236678  0.25307465     0.07200
C1143       C  0.09716644  0.91953694  0.24117844    -0.07400
C1144       C  0.11266213  0.90581805  0.23996849     0.04600
C1145       C  0.13700729  0.91511438  0.25078151    -0.14600
C1146       C  0.14509580  0.93786654  0.26278856    -0.08000
C1147       C  0.08830712  0.95610594  0.25398960     0.05500
C1148       C  0.09841041  0.98239831  0.24594020    -0.09100
C1149       C  0.08254095  0.99578438  0.24604454     0.00500
C1150       C  0.05596014  0.98274295  0.25446291     0.00400
C1151       C  0.04594703  0.95630256  0.26248030    -0.12600
C1152       C  0.06191340  0.94302653  0.26236763     0.00900
C1153       C  0.09365618  0.02226046  0.23668762     0.40200
C1154       C  0.05114371  0.91628379  0.27129761     0.36800
C1155       C  0.13841960  0.97457180  0.27672647     0.36500
C1156       C  0.10221803  0.88139465  0.22835547     0.37300
N1157       N  0.10253268  0.04346068  0.22917406    -0.43500
N1158       N  0.04265152  0.89490320  0.27850322    -0.44000
N1159       N  0.09364037  0.86173251  0.21911188    -0.41300
N1160       N  0.14543696  0.99295574  0.28699702    -0.42800
H1161       H  0.16364652  0.94500956  0.27123556     0.13400
H1162       H  0.07838780  0.91228688  0.23295504     0.09900
H1163       H  0.11863174  0.99229475  0.23931647     0.11000
H1164       H  0.02571342  0.94607813  0.26907155     0.16800
C1165       C  0.08255104  0.17082476  0.26633670    -0.01400
C1166       C  0.08594566  0.15541225  0.25202703     0.07200
C1167       C  0.10223632  0.16916536  0.23653755    -0.07400
C1168       C  0.11539415  0.19814833  0.23516091     0.04600
C1169       C  0.11197750  0.21383870  0.24948060    -0.14600
C1170       C  0.09554165  0.19978445  0.26499094    -0.08000
C1171       C  0.07255662  0.12482565  0.25290655     0.05500
C1172       C  0.04850108  0.10895972  0.24239390    -0.09100
C1173       C  0.03519831  0.07992597  0.24273934     0.00500
C1174       C  0.04611132  0.06638295  0.25382297     0.00400
C1175       C  0.07045730  0.08244415  0.26417352    -0.12600
C1176       C  0.08366358  0.11147001  0.26382665     0.00900
C1177       C  0.01128581  0.06473101  0.23087306     0.40200
C1178       C  0.10874836  0.12716754  0.27456046     0.36800
C1179       C  0.06555718  0.15725873  0.28238772     0.36500
C1180       C  0.13320133  0.21096661  0.21932682     0.37300
N1181       N  0.99217064  0.05259133  0.22131477    -0.43500
N1182       N  0.12886135  0.13977647  0.28314823    -0.44000
N1183       N  0.14741942  0.22095414  0.20655891    -0.41300
N1184       N  0.05190155  0.14628058  0.29521576    -0.42800
H1185       H  0.09257672  0.21140849  0.27604294     0.13400
H1186       H  0.10496424  0.15718278  0.22561199     0.09900
H1187       H  0.04022295  0.11934809  0.23380873     0.11000
H1188       H  0.07912016  0.07230045  0.27263797     0.16800
C1189       C  0.85766154  0.91918172  0.23531452    -0.01400
C1190       C  0.87454445  0.91714089  0.24923508     0.07200
C1191       C  0.86260082  0.89600227  0.26259697    -0.07400
C1192       C  0.83413813  0.87715683  0.26239893     0.04600
C1193       C  0.81691391  0.87998013  0.24905715    -0.14600
C1194       C  0.82900977  0.90081376  0.23541566    -0.08000
C1195       C  0.90487956  0.93628402  0.24986653     0.05500
C1196       C  0.91493479  0.96452409  0.25355817    -0.09100
C1197       C  0.94349758  0.98304180  0.25496149     0.00500
C1198       C  0.96266936  0.97315678  0.25272455     0.00400
C1199       C  0.95220807  0.94473269  0.24887338    -0.12600
C1200       C  0.92373905  0.92644845  0.24736494     0.00900
C1201       C  0.95202570  0.01173879  0.25899595     0.40200
C1202       C  0.91432677  0.89773402  0.24277343     0.36800
C1203       C  0.86946604  0.93925945  0.22045386     0.36500
C1204       C  0.82347695  0.85416607  0.27529810     0.37300
N1205       N  0.95856559  0.03468066  0.26218361    -0.43500
N1206       N  0.90665616  0.87471588  0.23905802    -0.44000
N1207       N  0.81502497  0.83553847  0.28546897    -0.41300
N1208       N  0.87908523  0.95520166  0.20847623    -0.42800
H1209       H  0.81607115  0.90297591  0.22493721     0.13400
H1210       H  0.87568667  0.89398637  0.27304294     0.09900
H1211       H  0.90033059  0.97204364  0.25555288     0.11000
H1212       H  0.96626370  0.93658105  0.24682000     0.16800
loop_ 
_geom_bond_atom_site_label_1 
_geom_bond_atom_site_label_2 
_geom_bond_distance 
_geom_bond_site_symmetry_2 
_ccdc_geom_bond_type 
N1            N2   1.324       .  A
N1            C5   1.344       .  A
N1           Cu9   2.066       .  S
N2            C3   1.348       .  A
N2           Cu8   2.088       .  S
C3            C4   1.384       .  A
C3            H6   1.082       .  S
C4            C5   1.380       .  A
C4          C228   1.468       .  S
C5            H7   1.082       .  S
Cu8          N11   2.088       .  S
Cu9          N19   2.065       .  S
Cu10         N12   2.066       .  S
Cu10         N18   2.065       .  S
N11          N12   1.323       .  A
N11          C15   1.348       .  A
N12          C13   1.344       .  A
C13          C14   1.380       .  A
C13          H16   1.082       .  S
C14          C15   1.385       .  A
C14         C410   1.470       .  S
C15          H17   1.082       .  S
N18          N19   1.321       .  A
N18          C22   1.342       .  A
N19          C20   1.344       .  A
C20          C21   1.384       .  A
C20          H23   1.082       .  S
C21          C22   1.384       .  A
C21        C1193   1.479       .  S
C22          H24   1.082       .  S
N25          N26   1.324       .  A
N25          C29   1.344       .  A
N25         Cu33   2.069       .  S
N26          C27   1.347       .  A
N26         Cu32   2.090       .  S
C27          C28   1.384       .  A
C27          H30   1.082       .  S
C28          C29   1.380       .  A
C28         C116   1.469       .  S
C29          H31   1.082       .  S
Cu32         N35   2.090       .  S
Cu33         N43   2.067       .  S
Cu34         N36   2.069       .  S
Cu34         N42   2.068       .  S
N35          N36   1.323       .  A
N35          C39   1.350       .  A
N36          C37   1.343       .  A
C37          C38   1.380       .  A
C37          H40   1.082       .  S
C38          C39   1.386       .  A
C38         C442   1.472       .  S
C39          H41   1.082       .  S
N42          N43   1.320       .  A
N42          C46   1.343       .  A
N43          C44   1.344       .  A
C44          C45   1.387       .  A
C44          H47   1.081       .  S
C45          C46   1.386       .  A
C45        C1169   1.485       .  S
C46          H48   1.082       .  S
N49          N50   1.323       .  A
N49          C53   1.344       .  A
N49         Cu57   2.068       .  S
N50          C51   1.349       .  A
N50         Cu56   2.090       .  S
C51          C52   1.386       .  A
C51          H54   1.082       .  S
C52          C53   1.379       .  A
C52         C338   1.471       .  S
C53          H55   1.082       .  S
Cu56         N59   2.089       .  S
Cu57         N67   2.067       .  S
Cu58         N60   2.066       .  S
Cu58         N66   2.065       .  S
N59          N60   1.324       .  A
N59          C63   1.347       .  A
N60          C61   1.344       .  A
C61          C62   1.378       .  A
C61          H64   1.082       .  S
C62          C63   1.383       .  A
C62         C180   1.466       .  S
C63          H65   1.082       .  S
N66          N67   1.321       .  A
N66          C70   1.345       .  A
N67          C68   1.343       .  A
C68          C69   1.383       .  A
C68          H71   1.082       .  S
C69          C70   1.384       .  A
C69        C1145   1.478       .  S
C70          H72   1.082       .  S
C73          N74   1.360   1_655  A
C73          N78   1.357   1_665  A
C73        C1198   1.491       .  S
N74          C75   1.357       .  A
C75          N76   1.356   1_565  A
C75        C1150   1.483       .  S
N76          C77   1.356       .  A
C77          N78   1.357       .  A
C77        C1174   1.478       .  S
N79          N80   1.322       .  A
N79          C83   1.345       .  A
N79         Cu87   2.076       .  S
N80          C81   1.345       .  A
N80         Cu86   2.070       .  S
C81          C82   1.383       .  A
C81          H84   1.082       .  S
C82          C83   1.385       .  A
C82        C1097   1.480       .  S
C83          H85   1.082       .  S
Cu86         N89   2.070       .  S
Cu87         N97   2.077       .  S
Cu88         N90   2.083       .  S
Cu88         N96   2.083       .  S
N89          N90   1.323       .  A
N89          C93   1.345       .  A
N90          C91   1.346       .  A
C91          C92   1.384       .  A
C91          H94   1.082       .  S
C92          C93   1.381       .  A
C92         C274   1.469       .  S
C93          H95   1.082       .  S
N96          N97   1.323       .  A
N96         C100   1.347       .  A
N97          C98   1.346       .  A
C98          C99   1.383       .  A
C98         H101   1.082       .  S
C99         C100   1.384       .  A
C99        C1126   1.480       .  S
C100        H102   1.082       .  S
N103        N104   1.320       .  A
N103        C107   1.345       .  A
N103       Cu111   2.069       .  S
N104        C105   1.345       .  A
N104       Cu110   2.079       .  S
C105        C106   1.388       .  A
C105        H108   1.082       .  S
C106        C107   1.386       .  A
C106       C1073   1.487       .  S
C107        H109   1.082       .  S
Cu110       N113   2.080       .  S
Cu111       N121   2.069       .  S
Cu112       N114   2.081       .  S
Cu112       N120   2.081       .  S
N113        N114   1.324       .  A
N113        C117   1.345       .  A
N114        C115   1.347       .  A
C115        C116   1.382       .  A
C115        H118   1.082       .  S
C116        C117   1.382       .  A
C117        H119   1.082       .  S
N120        N121   1.323       .  A
N120        C124   1.348       .  A
N121        C122   1.342       .  A
C122        C123   1.380       .  A
C122        H125   1.082       .  S
C123        C124   1.385       .  A
C123       C1054   1.477       .  S
C124        H126   1.082       .  S
N127        N128   1.322       .  A
N127        C131   1.346       .  A
N127       Cu135   2.081       .  S
N128        C129   1.344       .  A
N128       Cu134   2.067       .  S
C129        C130   1.383       .  A
C129        H132   1.082       .  S
C130        C131   1.387       .  A
C130       C1001   1.484       .  S
C131        H133   1.082       .  S
Cu134       N137   2.066       .  S
Cu135       N145   2.081       .  S
Cu136       N138   2.070       .  S
Cu136       N144   2.071       .  S
N137        N138   1.322       .  A
N137        C141   1.343       .  A
N138        C139   1.346       .  A
C139        C140   1.382       .  A
C139        H142   1.082       .  S
C140        C141   1.379       .  A
C140        C314   1.463       .  S
C141        H143   1.082       .  S
N144        N145   1.323       .  A
N144        C148   1.345       .  A
N145        C146   1.345       .  A
C146        C147   1.385       .  A
C146        H149   1.082       .  S
C147        C148   1.383       .  A
C147       C1030   1.482       .  S
C148        H150   1.082       .  S
C151        C152   1.415       .  A
C151        C156   1.400       .  A
C151       C1102   1.479   1_455  S
C152        C153   1.404   1_556  A
C152       C1006   1.494   1_455  S
C153        C154   1.404       .  A
C153        H158   1.084       .  S
C154        C155   1.415       .  A
C154        C982   1.480       .  S
C155        C156   1.403   1_554  A
C155       C1078   1.491       .  S
C156        H157   1.085       .  S
C159        C160   1.409       .  A
C159        C164   1.397   1_554  A
C159       C1049   1.480       .  S
C160        C161   1.404   1_554  A
C160        C929   1.479       .  S
C161        C162   1.407       .  A
C161        H166   1.084       .  S
C162        C163   1.418       .  A
C162       C1025   1.493       .  S
C163        C164   1.401       .  A
C163        C958   1.482       .  S
C164        H165   1.085       .  S
N167        N168   1.322       .  A
N167        C171   1.341       .  A
N167       Cu175   2.061       .  S
N168        C169   1.346       .  A
N168       Cu174   2.075       .  S
C169        C170   1.386       .  A
C169        H172   1.082       .  S
C170        C171   1.381       .  A
C170        C977   1.478       .  S
C171        H173   1.082       .  S
Cu174       N177   2.074       .  S
Cu175       N185   2.061       .  S
Cu176       N178   2.075       .  S
Cu176       N184   2.074       .  S
N177        N178   1.323       .  A
N177        C181   1.345       .  A
N178        C179   1.345       .  A
C179        C180   1.382       .  A
C179        H182   1.082       .  S
C180        C181   1.380       .  A
C181        H183   1.082       .  S
N184        N185   1.321       .  A
N184        C188   1.343       .  A
N185        C186   1.344       .  A
C186        C187   1.385       .  A
C186        H189   1.082       .  S
C187        C188   1.386       .  A
C187        C905   1.483       .  S
C188        H190   1.082       .  S
N191        N192   1.322       .  A
N191        C195   1.344       .  A
N191       Cu199   2.063       .  S
N192        C193   1.347       .  A
N192       Cu198   2.095       .  S
C193        C194   1.390       .  A
C193        H196   1.081       .  S
C194        C195   1.383       .  A
C194        C886   1.488       .  S
C195        H197   1.082       .  S
Cu198       N201   2.096       .  S
Cu199       N209   2.062       .  S
Cu200       N202   2.071       .  S
Cu200       N208   2.070       .  S
N201        N202   1.323       .  A
N201        C205   1.350       .  A
N202        C203   1.344       .  A
C203        C204   1.380       .  A
C203        H206   1.082       .  S
C204        C205   1.387       .  A
C204        C260   1.474       .  S
C205        H207   1.082       .  S
N208        N209   1.320       .  A
N208        C212   1.344       .  A
N209        C210   1.342       .  A
C210        C211   1.384       .  A
C210        H213   1.082       .  S
C211        C212   1.386       .  A
C211        C953   1.481       .  S
C212        H214   1.081       .  S
N215        N216   1.322       .  A
N215        C219   1.343       .  A
N215       Cu223   2.073       .  S
N216        C217   1.348       .  A
N216       Cu222   2.080       .  S
C217        C218   1.385       .  A
C217        H220   1.082       .  S
C218        C219   1.384       .  A
C218        C862   1.482       .  S
C219        H221   1.081       .  S
Cu222       N225   2.080       .  S
Cu223       N233   2.072       .  S
Cu224       N226   2.077       .  S
Cu224       N232   2.076       .  S
N225        N226   1.324       .  A
N225        C229   1.347       .  A
N226        C227   1.344       .  A
C227        C228   1.381       .  A
C227        H230   1.082       .  S
C228        C229   1.382       .  A
C229        H231   1.082       .  S
N232        N233   1.322       .  A
N232        C236   1.346       .  A
N233        C234   1.345       .  A
C234        C235   1.384       .  A
C234        H237   1.082       .  S
C235        C236   1.384       .  A
C235        C934   1.480       .  S
C236        H238   1.082       .  S
C239        C240   1.412       .  A
C239        C244   1.402   1_556  A
C239        C881   1.486       .  S
C240        C241   1.402   1_556  A
C240       C1121   1.480       .  S
C241        C242   1.403       .  A
C241        H246   1.084       .  S
C242        C243   1.414       .  A
C242        C857   1.486   1_545  S
C243        C244   1.402       .  A
C243        C910   1.481   1_545  S
C244        H245   1.085       .  S
N247        N248   1.322       .  A
N247        C251   1.343       .  A
N247       Cu255   2.062       .  S
N248        C249   1.348       .  A
N248       Cu254   2.083       .  S
C249        C250   1.384       .  A
C249        H252   1.082       .  S
C250        C251   1.379       .  A
C250        C386   1.468       .  S
C251        H253   1.082       .  S
Cu254       N257   2.083       .  S
Cu255       N265   2.063       .  S
Cu256       N258   2.094       .  S
Cu256       N264   2.094       .  S
N257        N258   1.325       .  A
N257        C261   1.348       .  A
N258        C259   1.347       .  A
C259        C260   1.385       .  A
C259        H262   1.082       .  S
C260        C261   1.382       .  A
C261        H263   1.082       .  S
N264        N265   1.321       .  A
N264        C268   1.348       .  A
N265        C266   1.344       .  A
C266        C267   1.383       .  A
C266        H269   1.082       .  S
C267        C268   1.390       .  A
C267        C833   1.488       .  S
C268        H270   1.082       .  S
N271        N272   1.325       .  A
N271        C275   1.344       .  A
N271       Cu279   2.076       .  S
N272        C273   1.348       .  A
N272       Cu278   2.086       .  S
C273        C274   1.384       .  A
C273        H276   1.082       .  S
C274        C275   1.379       .  A
C275        H277   1.082       .  S
Cu278       N281   2.084       .  S
Cu279       N289   2.076       .  S
Cu280       N282   2.064       .  S
Cu280       N288   2.064       .  S
N281        N282   1.323       .  A
N281        C285   1.349       .  A
N282        C283   1.341       .  A
C283        C284   1.377       .  A
C283        H286   1.082       .  S
C284        C285   1.384       .  A
C284        C362   1.465       .  S
C285        H287   1.082       .  S
N288        N289   1.319       .  A
N288        C292   1.343       .  A
N289        C290   1.346       .  A
C290        C291   1.389       .  A
C290        H293   1.082       .  S
C291        C292   1.386       .  A
C291        C809   1.488       .  S
C292        H294   1.082       .  S
C295        N296   1.360   1_455  A
C295        N300   1.363   1_565  A
C295        C785   1.493   1_455  S
N296        C297   1.358   1_665  A
C297        N298   1.356       .  A
C297        C814   1.487   1_455  S
N298        C299   1.358       .  A
C299        N300   1.362       .  A
C299        C838   1.492       .  S
N301        N302   1.322       .  A
N301        C305   1.343       .  A
N301       Cu309   2.066       .  S
N302        C303   1.345       .  A
N302       Cu308   2.068       .  S
C303        C304   1.381       .  A
C303        H306   1.082       .  S
C304        C305   1.380       .  A
C304        C466   1.463       .  S
C305        H307   1.082       .  S
Cu308       N311   2.068       .  S
Cu309       N319   2.067       .  S
Cu310       N312   2.076       .  S
Cu310       N318   2.076       .  S
N311        N312   1.323       .  A
N311        C315   1.345       .  A
N312        C313   1.345       .  A
C313        C314   1.381       .  A
C313        H316   1.082       .  S
C314        C315   1.379       .  A
C315        H317   1.082       .  S
N318        N319   1.322       .  A
N318        C322   1.346       .  A
N319        C320   1.344       .  A
C320        C321   1.383       .  A
C320        H323   1.082       .  S
C321        C322   1.385       .  A
C321        C790   1.481       .  S
C322        H324   1.082       .  S
N325        N326   1.321       .  A
N325        C329   1.344       .  A
N325       Cu333   2.068       .  S
N326        C327   1.349       .  A
N326       Cu332   2.093       .  S
C327        C328   1.391       .  A
C327        H330   1.082       .  S
C328        C329   1.386       .  A
C328        C742   1.492       .  S
C329        H331   1.081       .  S
Cu332       N335   2.093       .  S
Cu333       N343   2.067       .  S
Cu334       N336   2.076       .  S
Cu334       N342   2.075       .  S
N335        N336   1.325       .  A
N335        C339   1.346       .  A
N336        C337   1.347       .  A
C337        C338   1.381       .  A
C337        H340   1.082       .  S
C338        C339   1.383       .  A
C339        H341   1.082       .  S
N342        N343   1.321       .  A
N342        C346   1.346       .  A
N343        C344   1.342       .  A
C344        C345   1.384       .  A
C344        H347   1.082       .  S
C345        C346   1.388       .  A
C345        C766   1.485       .  S
C346        H348   1.081       .  S
N349        N350   1.323       .  A
N349        C353   1.343       .  A
N349       Cu357   2.073       .  S
N350        C351   1.345       .  A
N350       Cu356   2.074       .  S
C351        C352   1.384       .  A
C351        H354   1.082       .  S
C352        C353   1.384       .  A
C352        C689   1.482       .  S
C353        H355   1.082       .  S
Cu356       N359   2.073       .  S
Cu357       N367   2.072       .  S
Cu358       N360   2.066       .  S
Cu358       N366   2.066       .  S
N359        N360   1.322       .  A
N359        C363   1.348       .  A
N360        C361   1.341       .  A
C361        C362   1.379       .  A
C361        H364   1.082       .  S
C362        C363   1.383       .  A
C363        H365   1.082       .  S
N366        N367   1.320       .  A
N366        C370   1.344       .  A
N367        C368   1.344       .  A
C368        C369   1.387       .  A
C368        H371   1.082       .  S
C369        C370   1.384       .  A
C369        C718   1.483       .  S
C370        H372   1.082       .  S
N373        N374   1.321       .  A
N373        C377   1.342       .  A
N373       Cu381   2.064       .  S
N374        C375   1.347       .  A
N374       Cu380   2.082       .  S
C375        C376   1.390       .  A
C375        H378   1.082       .  S
C376        C377   1.385       .  A
C376        C670   1.488       .  S
C377        H379   1.081       .  S
Cu380       N383   2.082       .  S
Cu381       N391   2.063       .  S
Cu382       N384   2.074       .  S
Cu382       N390   2.073       .  S
N383        N384   1.324       .  A
N383        C387   1.347       .  A
N384        C385   1.344       .  A
C385        C386   1.381       .  A
C385        H388   1.082       .  S
C386        C387   1.382       .  A
C387        H389   1.082       .  S
N390        N391   1.321       .  A
N390        C394   1.344       .  A
N391        C392   1.343       .  A
C392        C393   1.383       .  A
C392        H395   1.082       .  S
C393        C394   1.384       .  A
C393        C641   1.478       .  S
C394        H396   1.082       .  S
N397        N398   1.322       .  A
N397        C401   1.343       .  A
N397       Cu405   2.074       .  S
N398        C399   1.349       .  A
N398       Cu404   2.086       .  S
C399        C400   1.389       .  A
C399        H402   1.082       .  S
C400        C401   1.385       .  A
C400        C593   1.489       .  S
C401        H403   1.082       .  S
Cu404       N407   2.085       .  S
Cu405       N415   2.073       .  S
Cu406       N408   2.076       .  S
Cu406       N414   2.076       .  S
N407        N408   1.324       .  A
N407        C411   1.348       .  A
N408        C409   1.345       .  A
C409        C410   1.381       .  A
C409        H412   1.082       .  S
C410        C411   1.383       .  A
C411        H413   1.082       .  S
N414        N415   1.320       .  A
N414        C418   1.344       .  A
N415        C416   1.345       .  A
C416        C417   1.387       .  A
C416        H419   1.082       .  S
C417        C418   1.389       .  A
C417        C617   1.489       .  S
C418        H420   1.081       .  S
C421        C422   1.416       .  A
C421        C426   1.407   1_565  A
C421        C598   1.493       .  S
C422        C423   1.404   1_565  A
C422        C737   1.489       .  S
C423        C424   1.406       .  A
C423        H428   1.084       .  S
C424        C425   1.417       .  A
C424        C665   1.492       .  S
C425        C426   1.405       .  A
C425        C713   1.489       .  S
C426        H427   1.084       .  S
N429        N430   1.320       .  A
N429        C433   1.343       .  A
N429       Cu437   2.060       .  S
N430        C431   1.346       .  A
N430       Cu436   2.083       .  S
C431        C432   1.389       .  A
C431        H434   1.082       .  S
C432        C433   1.384       .  A
C432        C550   1.485       .  S
C433        H435   1.082       .  S
Cu436       N439   2.084       .  S
Cu437       N447   2.060       .  S
Cu438       N440   2.084       .  S
Cu438       N446   2.084       .  S
N439        N440   1.324       .  A
N439        C443   1.345       .  A
N440        C441   1.349       .  A
C441        C442   1.383       .  A
C441        H444   1.082       .  S
C442        C443   1.382       .  A
C443        H445   1.082       .  S
N446        N447   1.322       .  A
N446        C450   1.348       .  A
N447        C448   1.341       .  A
C448        C449   1.381       .  A
C448        H451   1.082       .  S
C449        C450   1.386       .  A
C449        C569   1.480       .  S
C450        H452   1.082       .  S
N453        N454   1.320       .  A
N453        C457   1.343       .  A
N453       Cu461   2.069       .  S
N454        C455   1.344       .  A
N454       Cu460   2.063       .  S
C455        C456   1.385       .  A
C455        H458   1.082       .  S
C456        C457   1.385       .  A
C456        C497   1.482       .  S
C457        H459   1.082       .  S
Cu460       N463   2.063       .  S
Cu461       N471   2.070       .  S
Cu462       N464   2.075       .  S
Cu462       N470   2.075       .  S
N463        N464   1.323       .  A
N463        C467   1.343       .  A
N464        C465   1.346       .  A
C465        C466   1.382       .  A
C465        H468   1.082       .  S
C466        C467   1.378       .  A
C467        H469   1.082       .  S
N470        N471   1.322       .  A
N470        C474   1.345       .  A
N471        C472   1.343       .  A
C472        C473   1.385       .  A
C472        H475   1.082       .  S
C473        C474   1.387       .  A
C473        C521   1.485       .  S
C474        H476   1.082       .  S
C477        C478   1.416       .  A
C477        C482   1.404       .  A
C477        C545   1.487       .  S
C478        C479   1.402       .  A
C478        C761   1.482       .  S
C479        C480   1.396       .  A
C479        H484   1.085       .  S
C480        C481   1.406       .  A
C480        C502   1.477   1_455  S
C481        C482   1.401       .  A
C481        C694   1.477   1_455  S
C482        H483   1.084       .  S
C485        C486   1.418       .  A
C485        C490   1.405       .  A
C485        C646   1.485       .  S
C486        C487   1.403       .  A
C486        C526   1.488       .  S
C487        C488   1.398       .  A
C487        H492   1.085       .  S
C488        C489   1.410       .  A
C488        C622   1.480       .  S
C489        C490   1.400       .  A
C489        C574   1.482       .  S
C490        H491   1.085       .  S
C493        C494   1.409       .  A
C493        C498   1.398       .  A
C493        C507   1.445       .  S
C494        C495   1.401       .  A
C494        C499   1.479       .  S
C495        C496   1.399       .  A
C495        H514   1.085       .  S
C496        C497   1.415       .  A
C496        C508   1.443       .  S
C497        C498   1.406       .  A
C498        H513   1.084       .  S
C499        C500   1.403       .  A
C499        C504   1.410       .  A
C500        C501   1.397       .  A
C500        H515   1.085       .  S
C501        C502   1.408       .  A
C501        C505   1.443       .  S
C502        C503   1.402       .  A
C503        C504   1.398       .  A
C503        H516   1.084   1_655  S
C504        C506   1.444       .  S
C505        N509   1.157       .  T
C506        N510   1.157       .  T
C507        N512   1.157       .  T
C508        N511   1.157       .  T
C517        C518   1.409       .  A
C517        C522   1.400       .  A
C517        C531   1.444       .  S
C518        C519   1.401       .  A
C518        C523   1.482       .  S
C519        C520   1.400       .  A
C519        H538   1.085       .  S
C520        C521   1.415       .  A
C520        C532   1.444       .  S
C521        C522   1.406       .  A
C522        H537   1.084       .  S
C523        C524   1.401       .  A
C523        C528   1.410       .  A
C524        C525   1.398       .  A
C524        H539   1.085       .  S
C525        C526   1.415       .  A
C525        C529   1.445       .  S
C526        C527   1.405       .  A
C527        C528   1.401       .  A
C527        H540   1.084       .  S
C528        C530   1.443       .  S
C529        N533   1.157       .  T
C530        N534   1.157       .  T
C531        N536   1.157       .  T
C532        N535   1.157       .  T
C541        C542   1.410       .  A
C541        C546   1.400       .  A
C541        C555   1.443       .  S
C542        C543   1.403       .  A
C542        C547   1.485       .  S
C543        C544   1.400       .  A
C543        H562   1.084       .  S
C544        C545   1.412       .  A
C544        C556   1.444       .  S
C545        C546   1.405       .  A
C546        H561   1.084       .  S
C547        C548   1.402       .  A
C547        C552   1.409       .  A
C548        C549   1.402       .  A
C548        H563   1.085       .  S
C549        C550   1.415       .  A
C549        C553   1.444       .  S
C550        C551   1.405       .  A
C551        C552   1.400       .  A
C551        H564   1.084       .  S
C552        C554   1.444       .  S
C553        N557   1.157       .  T
C554        N558   1.157       .  T
C555        N560   1.157       .  T
C556        N559   1.157       .  T
C565        C566   1.410       .  A
C565        C570   1.403       .  A
C565        C579   1.444       .  S
C566        C567   1.399       .  A
C566        C571   1.479       .  S
C567        C568   1.396       .  A
C567        H586   1.085       .  S
C568        C569   1.414       .  A
C568        C580   1.444       .  S
C569        C570   1.405       .  A
C570        H585   1.084       .  S
C571        C572   1.402       .  A
C571        C576   1.409       .  A
C572        C573   1.399       .  A
C572        H587   1.085       .  S
C573        C574   1.410       .  A
C573        C577   1.444       .  S
C574        C575   1.403       .  A
C575        C576   1.400       .  A
C575        H588   1.084       .  S
C576        C578   1.444       .  S
C577        N581   1.157       .  T
C578        N582   1.157       .  T
C579        N584   1.157       .  T
C580        N583   1.157       .  T
C589        C590   1.410       .  A
C589        C594   1.398       .  A
C589        C603   1.444       .  S
C590        C591   1.403       .  A
C590        C595   1.488       .  S
C591        C592   1.405       .  A
C591        H610   1.085       .  S
C592        C593   1.416       .  A
C592        C604   1.443       .  S
C593        C594   1.406       .  A
C594        H609   1.084       .  S
C595        C596   1.402       .  A
C595        C600   1.411       .  A
C596        C597   1.403       .  A
C596        H611   1.085       .  S
C597        C598   1.415       .  A
C597        C601   1.444       .  S
C598        C599   1.405       .  A
C599        C600   1.401       .  A
C599        H612   1.084       .  S
C600        C602   1.444       .  S
C601        N605   1.157   1_565  T
C602        N606   1.157       .  T
C603        N608   1.157       .  T
C604        N607   1.157       .  T
C613        C614   1.410       .  A
C613        C618   1.402       .  A
C613        C627   1.445       .  S
C614        C615   1.400       .  A
C614        C619   1.484       .  S
C615        C616   1.400       .  A
C615        H634   1.085       .  S
C616        C617   1.416       .  A
C616        C628   1.443       .  S
C617        C618   1.408       .  A
C618        H633   1.084       .  S
C619        C620   1.403       .  A
C619        C624   1.412       .  A
C620        C621   1.399       .  A
C620        H635   1.084       .  S
C621        C622   1.410       .  A
C621        C625   1.444       .  S
C622        C623   1.402       .  A
C623        C624   1.399       .  A
C623        H636   1.084       .  S
C624        C626   1.444       .  S
C625        N629   1.157       .  T
C626        N630   1.157       .  T
C627        N632   1.157       .  T
C628        N631   1.157       .  T
C637        C638   1.411       .  A
C637        C642   1.399       .  A
C637        C651   1.444       .  S
C638        C639   1.402       .  A
C638        C643   1.483       .  S
C639        C640   1.400       .  A
C639        H658   1.085       .  S
C640        C641   1.413       .  A
C640        C652   1.444       .  S
C641        C642   1.404       .  A
C642        H657   1.084       .  S
C643        C644   1.403       .  A
C643        C648   1.410       .  A
C644        C645   1.400       .  A
C644        H659   1.085       .  S
C645        C646   1.412       .  A
C645        C649   1.443       .  S
C646        C647   1.404       .  A
C647        C648   1.398       .  A
C647        H660   1.085       .  S
C648        C650   1.444       .  S
C649        N653   1.157       .  T
C650        N654   1.157       .  T
C651        N656   1.157       .  T
C652        N655   1.157       .  T
C661        C662   1.410       .  A
C661        C666   1.402       .  A
C661        C675   1.443       .  S
C662        C663   1.402       .  A
C662        C667   1.486       .  S
C663        C664   1.400       .  A
C663        H682   1.085       .  S
C664        C665   1.415       .  A
C664        C676   1.445       .  S
C665        C666   1.406       .  A
C666        H681   1.084       .  S
C667        C668   1.402       .  A
C667        C672   1.409       .  A
C668        C669   1.402       .  A
C668        H683   1.085       .  S
C669        C670   1.417       .  A
C669        C673   1.444       .  S
C670        C671   1.406       .  A
C671        C672   1.401       .  A
C671        H684   1.084       .  S
C672        C674   1.443       .  S
C673        N677   1.157       .  T
C674        N678   1.157       .  T
C675        N680   1.157       .  T
C676        N679   1.157       .  T
C685        C686   1.409       .  A
C685        C690   1.402       .  A
C685        C699   1.444       .  S
C686        C687   1.400       .  A
C686        C691   1.480       .  S
C687        C688   1.396       .  A
C687        H706   1.085       .  S
C688        C689   1.414       .  A
C688        C700   1.444       .  S
C689        C690   1.407       .  A
C690        H705   1.084       .  S
C691        C692   1.403       .  A
C691        C696   1.411       .  A
C692        C693   1.399       .  A
C692        H707   1.085       .  S
C693        C694   1.408       .  A
C693        C697   1.443   1_655  S
C694        C695   1.401       .  A
C695        C696   1.397       .  A
C695        H708   1.085       .  S
C696        C698   1.444       .  S
C697        N701   1.157       .  T
C698        N702   1.157       .  T
C699        N704   1.157       .  T
C700        N703   1.157       .  T
C709        C710   1.411       .  A
C709        C714   1.402       .  A
C709        C723   1.444       .  S
C710        C711   1.403       .  A
C710        C715   1.486       .  S
C711        C712   1.401       .  A
C711        H730   1.085       .  S
C712        C713   1.412       .  A
C712        C724   1.442       .  S
C713        C714   1.405       .  A
C714        H729   1.085       .  S
C715        C716   1.402       .  A
C715        C720   1.411       .  A
C716        C717   1.400       .  A
C716        H731   1.085       .  S
C717        C718   1.413       .  A
C717        C721   1.444       .  S
C718        C719   1.406       .  A
C719        C720   1.402       .  A
C719        H732   1.084       .  S
C720        C722   1.444       .  S
C721        N725   1.157       .  T
C722        N726   1.157       .  T
C723        N728   1.157       .  T
C724        N727   1.157       .  T
C733        C734   1.411       .  A
C733        C738   1.402       .  A
C733        C747   1.443       .  S
C734        C735   1.403       .  A
C734        C739   1.488       .  S
C735        C736   1.403       .  A
C735        H754   1.085       .  S
C736        C737   1.413       .  A
C736        C748   1.444       .  S
C737        C738   1.403       .  A
C738        H753   1.085       .  S
C739        C740   1.400       .  A
C739        C744   1.410       .  A
C740        C741   1.402       .  A
C740        H755   1.085       .  S
C741        C742   1.418       .  A
C741        C745   1.443       .  S
C742        C743   1.407       .  A
C743        C744   1.405       .  A
C743        H756   1.084       .  S
C744        C746   1.444       .  S
C745        N749   1.157       .  T
C746        N750   1.157       .  T
C747        N752   1.157       .  T
C748        N751   1.157       .  T
C757        C758   1.411       .  A
C757        C762   1.400       .  A
C757        C771   1.443       .  S
C758        C759   1.403       .  A
C758        C763   1.484       .  S
C759        C760   1.396       .  A
C759        H778   1.085       .  S
C760        C761   1.411       .  A
C760        C772   1.445       .  S
C761        C762   1.404       .  A
C762        H777   1.085       .  S
C763        C764   1.402       .  A
C763        C768   1.409       .  A
C764        C765   1.400       .  A
C764        H779   1.085       .  S
C765        C766   1.416       .  A
C765        C769   1.443       .  S
C766        C767   1.406       .  A
C767        C768   1.398       .  A
C767        H780   1.084       .  S
C768        C770   1.445       .  S
C769        N773   1.157       .  T
C770        N774   1.157       .  T
C771        N776   1.157       .  T
C772        N775   1.157       .  T
C781        C782   1.408       .  A
C781        C786   1.401       .  A
C781        C795   1.444       .  S
C782        C783   1.402       .  A
C782        C787   1.485       .  S
C783        C784   1.402   1_655  A
C783        H802   1.085   1_655  S
C784        C785   1.418   1_455  A
C784        C796   1.443       .  S
C785        C786   1.410       .  A
C786        H801   1.084       .  S
C787        C788   1.403       .  A
C787        C792   1.410       .  A
C788        C789   1.402       .  A
C788        H803   1.084       .  S
C789        C790   1.414       .  A
C789        C793   1.444       .  S
C790        C791   1.403       .  A
C791        C792   1.400       .  A
C791        H804   1.084       .  S
C792        C794   1.443       .  S
C793        N797   1.157       .  T
C794        N798   1.157   1_655  T
C795        N800   1.157       .  T
C796        N799   1.157       .  T
C805        C806   1.407       .  A
C805        C810   1.400       .  A
C805        C819   1.444       .  S
C806        C807   1.401       .  A
C806        C811   1.481       .  S
C807        C808   1.402       .  A
C807        H826   1.085       .  S
C808        C809   1.416       .  A
C808        C820   1.443       .  S
C809        C810   1.408       .  A
C810        H825   1.084       .  S
C811        C812   1.400       .  A
C811        C816   1.407       .  A
C812        C813   1.402       .  A
C812        H827   1.085       .  S
C813        C814   1.417       .  A
C813        C817   1.444   1_655  S
C814        C815   1.407       .  A
C815        C816   1.401       .  A
C815        H828   1.084       .  S
C816        C818   1.443       .  S
C817        N821   1.157       .  T
C818        N822   1.157       .  T
C819        N824   1.157       .  T
C820        N823   1.157       .  T
C829        C830   1.409       .  A
C829        C834   1.402       .  A
C829        C843   1.444       .  S
C830        C831   1.405       .  A
C830        C835   1.490       .  S
C831        C832   1.404       .  A
C831        H850   1.084       .  S
C832        C833   1.413       .  A
C832        C844   1.443       .  S
C833        C834   1.407       .  A
C834        H849   1.084       .  S
C835        C836   1.404       .  A
C835        C840   1.408       .  A
C836        C837   1.404       .  A
C836        H851   1.085       .  S
C837        C838   1.417       .  A
C837        C841   1.444       .  S
C838        C839   1.409       .  A
C839        C840   1.401       .  A
C839        H852   1.084       .  S
C840        C842   1.444       .  S
C841        N845   1.157   1_545  T
C842        N846   1.157       .  T
C843        N848   1.157       .  T
C844        N847   1.157       .  T
C853        C854   1.411       .  A
C853        C858   1.400       .  A
C853        C867   1.443       .  S
C854        C855   1.403       .  A
C854        C859   1.487       .  S
C855        C856   1.402       .  A
C855        H874   1.085       .  S
C856        C857   1.413       .  A
C856        C868   1.444   1_565  S
C857        C858   1.402       .  A
C858        H873   1.084       .  S
C859        C860   1.403       .  A
C859        C864   1.411       .  A
C860        C861   1.401       .  A
C860        H875   1.085       .  S
C861        C862   1.413       .  A
C861        C865   1.444       .  S
C862        C863   1.404       .  A
C863        C864   1.403       .  A
C863        H876   1.084       .  S
C864        C866   1.443       .  S
C865        N869   1.157       .  T
C866        N870   1.157       .  T
C867        N872   1.157       .  T
C868        N871   1.157       .  T
C877        C878   1.412       .  A
C877        C882   1.402       .  A
C877        C891   1.444       .  S
C878        C879   1.403       .  A
C878        C883   1.487       .  S
C879        C880   1.399       .  A
C879        H898   1.085       .  S
C880        C881   1.411       .  A
C880        C892   1.444   1_556  S
C881        C882   1.404       .  A
C882        H897   1.083       .  S
C883        C884   1.402       .  A
C883        C888   1.410       .  A
C884        C885   1.401       .  A
C884        H899   1.085       .  S
C885        C886   1.415       .  A
C885        C889   1.443       .  S
C886        C887   1.407       .  A
C887        C888   1.402       .  A
C887        H900   1.084       .  S
C888        C890   1.445       .  S
C889        N893   1.157       .  T
C890        N894   1.157       .  T
C891        N896   1.157       .  T
C892        N895   1.157       .  T
C901        C902   1.410       .  A
C901        C906   1.399       .  A
C901        C915   1.444       .  S
C902        C903   1.402       .  A
C902        C907   1.484       .  S
C903        C904   1.400       .  A
C903        H922   1.085       .  S
C904        C905   1.415       .  A
C904        C916   1.443       .  S
C905        C906   1.405       .  A
C906        H921   1.084       .  S
C907        C908   1.405       .  A
C907        C912   1.410       .  A
C908        C909   1.401       .  A
C908        H923   1.084       .  S
C909        C910   1.410       .  A
C909        C913   1.443   1_565  S
C910        C911   1.402       .  A
C911        C912   1.398       .  A
C911        H924   1.085   1_554  S
C912        C914   1.444       .  S
C913        N917   1.157       .  T
C914        N918   1.157   1_554  T
C915        N920   1.157       .  T
C916        N919   1.157       .  T
C925        C926   1.410       .  A
C925        C930   1.401       .  A
C925        C939   1.443       .  S
C926        C927   1.403       .  A
C926        C931   1.483       .  S
C927        C928   1.399       .  A
C927        H946   1.084       .  S
C928        C929   1.409       .  A
C928        C940   1.443       .  S
C929        C930   1.403       .  A
C930        H945   1.084   1_554  S
C931        C932   1.402       .  A
C931        C936   1.410       .  A
C932        C933   1.401       .  A
C932        H947   1.085       .  S
C933        C934   1.413       .  A
C933        C937   1.444       .  S
C934        C935   1.404       .  A
C935        C936   1.401       .  A
C935        H948   1.085       .  S
C936        C938   1.444       .  S
C937        N941   1.157       .  T
C938        N942   1.157       .  T
C939        N944   1.157   1_554  T
C940        N943   1.157       .  T
C949        C950   1.408       .  A
C949        C954   1.398       .  A
C949        C963   1.444       .  S
C950        C951   1.401       .  A
C950        C955   1.479       .  S
C951        C952   1.400       .  A
C951        H970   1.085       .  S
C952        C953   1.414       .  A
C952        C964   1.443       .  S
C953        C954   1.406       .  A
C954        H969   1.084       .  S
C955        C956   1.402       .  A
C955        C960   1.409       .  A
C956        C957   1.399       .  A
C956        H971   1.084       .  S
C957        C958   1.412       .  A
C957        C961   1.443       .  S
C958        C959   1.404       .  A
C959        C960   1.398       .  A
C959        H972   1.084   1_556  S
C960        C962   1.444       .  S
C961        N965   1.157       .  T
C962        N966   1.157       .  T
C963        N968   1.157       .  T
C964        N967   1.157       .  T
C973        C974   1.410       .  A
C973        C978   1.398       .  A
C973        C987   1.444       .  S
C974        C975   1.403       .  A
C974        C979   1.483       .  S
C975        C976   1.401       .  A
C975        H994   1.085       .  S
C976        C977   1.411       .  A
C976        C988   1.443       .  S
C977        C978   1.404       .  A
C978        H993   1.085       .  S
C979        C980   1.404       .  A
C979        C984   1.410       .  A
C980        C981   1.399       .  A
C980        H995   1.085       .  S
C981        C982   1.409       .  A
C981        C985   1.443   1_554  S
C982        C983   1.403       .  A
C983        C984   1.400       .  A
C983        H996   1.085       .  S
C984        C986   1.444       .  S
C985        N989   1.157       .  T
C986        N990   1.157       .  T
C987        N992   1.157       .  T
C988        N991   1.157       .  T
C997        C998   1.410       .  A
C997       C1002   1.403       .  A
C997       C1011   1.444       .  S
C998        C999   1.403       .  A
C998       C1003   1.486       .  S
C999       C1000   1.400       .  A
C999       H1018   1.085       .  S
C1000      C1001   1.413       .  A
C1000      C1012   1.444       .  S
C1001      C1002   1.406       .  A
C1002      H1017   1.084       .  S
C1003      C1004   1.403       .  A
C1003      C1008   1.410       .  A
C1004      C1005   1.404       .  A
C1004      H1019   1.085       .  S
C1005      C1006   1.415       .  A
C1005      C1009   1.444   1_655  S
C1006      C1007   1.405       .  A
C1007      C1008   1.399       .  A
C1007      H1020   1.083       .  S
C1008      C1010   1.444       .  S
C1009      N1013   1.157       .  T
C1010      N1014   1.157       .  T
C1011      N1016   1.157       .  T
C1012      N1015   1.157       .  T
C1021      C1022   1.408       .  A
C1021      C1026   1.400       .  A
C1021      C1035   1.444       .  S
C1022      C1023   1.401       .  A
C1022      C1027   1.482       .  S
C1023      C1024   1.402       .  A
C1023      H1042   1.085       .  S
C1024      C1025   1.415       .  A
C1024      C1036   1.444       .  S
C1025      C1026   1.406       .  A
C1026      H1041   1.084       .  S
C1027      C1028   1.402       .  A
C1027      C1032   1.408       .  A
C1028      C1029   1.403       .  A
C1028      H1043   1.085       .  S
C1029      C1030   1.414       .  A
C1029      C1033   1.444       .  S
C1030      C1031   1.404       .  A
C1031      C1032   1.399       .  A
C1031      H1044   1.085       .  S
C1032      C1034   1.444       .  S
C1033      N1037   1.157       .  T
C1034      N1038   1.157       .  T
C1035      N1040   1.157       .  T
C1036      N1039   1.157       .  T
C1045      C1046   1.410       .  A
C1045      C1050   1.400       .  A
C1045      C1059   1.443       .  S
C1046      C1047   1.405       .  A
C1046      C1051   1.484       .  S
C1047      C1048   1.400       .  A
C1047      H1066   1.085       .  S
C1048      C1049   1.408       .  A
C1048      C1060   1.443   1_554  S
C1049      C1050   1.402       .  A
C1050      H1065   1.084       .  S
C1051      C1052   1.404       .  A
C1051      C1056   1.410       .  A
C1052      C1053   1.403       .  A
C1052      H1067   1.085       .  S
C1053      C1054   1.411       .  A
C1053      C1057   1.443       .  S
C1054      C1055   1.403       .  A
C1055      C1056   1.398       .  A
C1055      H1068   1.085       .  S
C1056      C1058   1.444       .  S
C1057      N1061   1.157       .  T
C1058      N1062   1.157       .  T
C1059      N1064   1.157       .  T
C1060      N1063   1.157       .  T
C1069      C1070   1.408       .  A
C1069      C1074   1.402       .  A
C1069      C1083   1.444       .  S
C1070      C1071   1.402       .  A
C1070      C1075   1.484       .  S
C1071      C1072   1.403       .  A
C1071      H1090   1.085       .  S
C1072      C1073   1.415       .  A
C1072      C1084   1.444       .  S
C1073      C1074   1.407       .  A
C1074      H1089   1.084       .  S
C1075      C1076   1.401       .  A
C1075      C1080   1.410       .  A
C1076      C1077   1.400       .  A
C1076      H1091   1.085       .  S
C1077      C1078   1.414       .  A
C1077      C1081   1.444   1_554  S
C1078      C1079   1.405       .  A
C1079      C1080   1.403       .  A
C1079      H1092   1.084       .  S
C1080      C1082   1.443       .  S
C1081      N1085   1.157       .  T
C1082      N1086   1.157       .  T
C1083      N1088   1.157       .  T
C1084      N1087   1.157       .  T
C1093      C1094   1.410       .  A
C1093      C1098   1.400       .  A
C1093      C1107   1.444       .  S
C1094      C1095   1.404       .  A
C1094      C1099   1.485       .  S
C1095      C1096   1.400       .  A
C1095      H1114   1.085       .  S
C1096      C1097   1.411       .  A
C1096      C1108   1.444       .  S
C1097      C1098   1.405       .  A
C1098      H1113   1.084       .  S
C1099      C1100   1.405       .  A
C1099      C1104   1.412       .  A
C1100      C1101   1.401       .  A
C1100      H1115   1.084       .  S
C1101      C1102   1.409       .  A
C1101      C1105   1.443   1_655  S
C1102      C1103   1.401       .  A
C1103      C1104   1.398       .  A
C1103      H1116   1.085       .  S
C1104      C1106   1.444       .  S
C1105      N1109   1.157       .  T
C1106      N1110   1.157       .  T
C1107      N1112   1.157       .  T
C1108      N1111   1.157       .  T
C1117      C1118   1.413       .  A
C1117      C1122   1.401       .  A
C1117      C1131   1.443       .  S
C1118      C1119   1.404       .  A
C1118      C1123   1.488       .  S
C1119      C1120   1.401       .  A
C1119      H1138   1.084       .  S
C1120      C1121   1.410       .  A
C1120      C1132   1.444       .  S
C1121      C1122   1.401       .  A
C1122      H1137   1.084   1_556  S
C1123      C1124   1.404       .  A
C1123      C1128   1.412       .  A
C1124      C1125   1.402       .  A
C1124      H1139   1.085       .  S
C1125      C1126   1.411       .  A
C1125      C1129   1.444       .  S
C1126      C1127   1.404       .  A
C1127      C1128   1.402       .  A
C1127      H1140   1.085       .  S
C1128      C1130   1.444       .  S
C1129      N1133   1.157       .  T
C1130      N1134   1.157       .  T
C1131      N1136   1.157       .  T
C1132      N1135   1.157       .  T
C1141      C1142   1.408       .  A
C1141      C1146   1.399       .  A
C1141      C1155   1.444       .  S
C1142      C1143   1.401       .  A
C1142      C1147   1.479       .  S
C1143      C1144   1.399       .  A
C1143      H1162   1.085       .  S
C1144      C1145   1.413       .  A
C1144      C1156   1.444       .  S
C1145      C1146   1.404       .  A
C1146      H1161   1.085       .  S
C1147      C1148   1.400       .  A
C1147      C1152   1.408       .  A
C1148      C1149   1.399       .  A
C1148      H1163   1.085       .  S
C1149      C1150   1.417       .  A
C1149      C1153   1.444   1_565  S
C1150      C1151   1.406       .  A
C1151      C1152   1.399       .  A
C1151      H1164   1.085       .  S
C1152      C1154   1.444       .  S
C1153      N1157   1.157       .  T
C1154      N1158   1.157       .  T
C1155      N1160   1.157       .  T
C1156      N1159   1.157       .  T
C1165      C1166   1.406       .  A
C1165      C1170   1.399       .  A
C1165      C1179   1.444       .  S
C1166      C1167   1.399       .  A
C1166      C1171   1.476       .  S
C1167      C1168   1.400       .  A
C1167      H1186   1.085       .  S
C1168      C1169   1.417       .  A
C1168      C1180   1.443       .  S
C1169      C1170   1.407       .  A
C1170      H1185   1.084       .  S
C1171      C1172   1.400       .  A
C1171      C1176   1.408       .  A
C1172      C1173   1.398       .  A
C1172      H1187   1.085       .  S
C1173      C1174   1.414       .  A
C1173      C1177   1.444       .  S
C1174      C1175   1.405       .  A
C1175      C1176   1.398       .  A
C1175      H1188   1.085       .  S
C1176      C1178   1.444       .  S
C1177      N1181   1.157   1_455  T
C1178      N1182   1.157       .  T
C1179      N1184   1.157       .  T
C1180      N1183   1.157       .  T
C1189      C1190   1.409       .  A
C1189      C1194   1.400       .  A
C1189      C1203   1.444       .  S
C1190      C1191   1.402       .  A
C1190      C1195   1.480       .  S
C1191      C1192   1.397       .  A
C1191      H1210   1.085       .  S
C1192      C1193   1.412       .  A
C1192      C1204   1.444       .  S
C1193      C1194   1.406       .  A
C1194      H1209   1.084       .  S
C1195      C1196   1.401       .  A
C1195      C1200   1.406       .  A
C1196      C1197   1.401       .  A
C1196      H1211   1.085       .  S
C1197      C1198   1.422       .  A
C1197      C1201   1.444   1_565  S
C1198      C1199   1.409       .  A
C1199      C1200   1.396       .  A
C1199      H1212   1.084       .  S
C1200      C1202   1.444       .  S
C1201      N1205   1.158       .  T
C1202      N1206   1.157       .  T
C1203      N1208   1.157       .  T
C1204      N1207   1.157       .  T
