geometry optimzed in LAMMPS
_audit_creation_date              2020-12-01 
_audit_creation_method            'lammps2cif' 
_symmetry_space_group_name_H-M    'P1' 
_symmetry_Int_Tables_number       1 
_symmetry_cell_setting            triclinic 
loop_ 
_symmetry_equiv_pos_as_xyz 
  x,y,z 
_cell_length_a                    31.51269338 
_cell_length_b                    30.415281179578468 
_cell_length_c                    30.979026104850536 
_cell_angle_alpha                 90.69351489615649 
_cell_angle_beta                  90.53929815664232 
_cell_angle_gamma                 90.33037277794942 
loop_ 
_atom_site_label 
_atom_site_type_symbol 
_atom_site_fract_x 
_atom_site_fract_y 
_atom_site_fract_z 
_atom_site_charge 
In1        In  0.17685683  0.24684503  0.24593178     1.36900
C2          C  0.12403698  0.20236977  0.29613338     0.77500
O3          O  0.14031294  0.30779153  0.23154411    -0.60900
O4          O  0.13874558  0.25721655  0.18380267    -0.51900
C5          C  0.23759471  0.30496009  0.26272977     0.70200
O6          O  0.20913690  0.29638673  0.29003328    -0.46700
C7          C  0.23256217  0.18277305  0.23464900     0.74900
O8          O  0.14096332  0.23827970  0.30830218    -0.58600
O9          O  0.21351144  0.20012483  0.20291912    -0.48700
O10         O  0.13235969  0.19080105  0.25796946    -0.55000
C11         C  0.12764333  0.29568916  0.19464517     0.85100
O12         O  0.23435922  0.28391531  0.22748322    -0.56900
O13         O  0.22322838  0.19866229  0.27110441    -0.60200
In14       In  0.42743866  0.99603725  0.25076202     1.36900
C15         C  0.48359382  0.45082189  0.19760373     0.77500
O16         O  0.46572893  0.05662402  0.26561770    -0.60900
O17         O  0.46633941  0.00614946  0.31231015    -0.51900
C18         C  0.36539479  0.05282664  0.23423070     0.70200
O19         O  0.39250773  0.04252806  0.20596590    -0.46700
C20         C  0.37369806  0.43073972  0.26319035     0.74900
O21         O  0.46752120  0.48707300  0.18670992    -0.58600
O22         O  0.39570818  0.44802070  0.29341844    -0.48700
O23         O  0.47290403  0.43773284  0.23434628    -0.55000
C24         C  0.47890066  0.04406425  0.30186033     0.85100
O25         O  0.37053748  0.03395331  0.26987813    -0.56900
O26         O  0.38084499  0.44540743  0.22601350    -0.60200
In27       In  0.30635158  0.37983532  0.88272068     1.36900
C28         C  0.35081847  0.42817241  0.82825163     0.77500
O29         O  0.36624759  0.39379901  0.91874413    -0.60900
O30         O  0.34457377  0.32753655  0.91690058    -0.51900
C31         C  0.25153546  0.41125623  0.94068775     0.70200
O32         O  0.25499100  0.42787881  0.90379841    -0.46700
C33         C  0.25924552  0.32576160  0.83270659     0.74900
O34         O  0.33057633  0.44510723  0.85924870    -0.58600
O35         O  0.27980834  0.31212163  0.86492398    -0.48700
O36         O  0.34766428  0.38684991  0.82482659    -0.55000
C37         C  0.37176073  0.35493643  0.93099135     0.85100
O38         O  0.27634350  0.37997313  0.94740899    -0.56900
O39         O  0.26285377  0.36638253  0.82635058    -0.60200
In40       In  0.06102979  0.38265609  0.11741534     1.36900
C41         C  0.01189837  0.43131728  0.16935795     0.77500
O42         O  0.02538458  0.40031621  0.05769553    -0.60900
O43         O  0.51114508  0.33008536  0.08801641    -0.51900
C44         C  0.12557344  0.40854722  0.06930013     0.70200
O45         O  0.11513888  0.42981482  0.10286059    -0.46700
C46         C  0.10324850  0.32554744  0.16679432     0.74900
O47         O  0.03524404  0.44834455  0.14113415    -0.58600
O48         O  0.08107130  0.31308462  0.13469775    -0.48700
O49         O  0.01417272  0.39004420  0.17122397    -0.55000
C50         C  0.50365544  0.35659332  0.05771345     0.85100
O51         O  0.10413999  0.37423425  0.06185092    -0.56900
O52         O  0.10336128  0.36651849  0.17348140    -0.60200
In53       In  0.05129062  0.12371127  0.37476239     1.36900
C54         C  0.09792162  0.17490412  0.32427231     0.77500
O55         O  0.08592312  0.14148784  0.43473531    -0.60900
O56         O  0.10021162  0.07950832  0.40694924    -0.51900
C57         C  0.48540891  0.15182305  0.42861580     0.70200
O58         O  0.50234021  0.17734518  0.40184959    -0.46700
C59         C  0.00885034  0.07080626  0.32141714     0.74900
O60         O  0.07401102  0.19045743  0.35305375    -0.58600
O61         O  0.03104114  0.05624658  0.35220588    -0.48700
O62         O  0.09796223  0.13346919  0.32140910    -0.55000
C63         C  0.10626192  0.10630021  0.43798643     0.85100
O64         O  0.00015511  0.10486645  0.41960256    -0.56900
O65         O  0.01035739  0.11192768  0.31664780    -0.60200
In66       In  0.30284411  0.13072266  0.61722953     1.36900
C67         C  0.35105511  0.07793263  0.66653883     0.77500
O68         O  0.33553421  0.12153417  0.55451155    -0.60900
O69         O  0.35303173  0.17775998  0.59119433    -0.51900
C70         C  0.23595561  0.10827216  0.56821621     0.68600
O71         O  0.25841377  0.07979905  0.58690757    -0.46700
C72         C  0.25912000  0.18114841  0.67221877     0.74900
O73         O  0.32654196  0.06306024  0.63733190    -0.58600
O74         O  0.27989984  0.19708514  0.64136804    -0.48700
O75         O  0.35067644  0.11924619  0.67050535    -0.55000
C76         C  0.35837491  0.15544459  0.55706679     0.85100
O77         O  0.24691664  0.14745125  0.57595920    -0.56900
O78         O  0.26207409  0.13994588  0.67578278    -0.60200
In79       In  0.17992153  0.25164779  0.75359362     1.36900
C80         C  0.23239956  0.20772364  0.70126287     0.77500
O81         O  0.22125497  0.30988235  0.76753824    -0.60900
O82         O  0.21845099  0.26030200  0.81536125    -0.51900
C83         C  0.12018241  0.31250812  0.74383011     0.70200
O84         O  0.13948856  0.29602590  0.71179772    -0.46700
C85         C  0.12177048  0.19080878  0.76691999     0.74900
O86         O  0.21811792  0.24526475  0.69187521    -0.58600
O87         O  0.14728564  0.20293605  0.79668198    -0.48700
O88         O  0.22070644  0.19364279  0.73733009    -0.55000
C89         C  0.23267803  0.29753245  0.80452912     0.85100
O90         O  0.13147146  0.29753615  0.77992672    -0.56900
O91         O  0.12738292  0.20905085  0.73104341    -0.60200
In92       In  0.42959555  0.00419761  0.74640852     1.36900
C93         C  0.37729032  0.45391388  0.79902579     0.77500
O94         O  0.38859432  0.06242398  0.73194531    -0.60900
O95         O  0.39255096  0.01308337  0.68325155    -0.51900
C96         C  0.48667042  0.06648799  0.76095930     0.70200
O97         O  0.46540864  0.05034403  0.79152133    -0.46700
C98         C  0.48885220  0.43610362  0.73222104     0.74900
O99         O  0.39241923  0.49129144  0.80880243    -0.58600
O100        O  0.46265788  0.44720960  0.70309491    -0.48700
O101        O  0.38798797  0.43933850  0.76254179    -0.55000
C102        C  0.37782111  0.05010308  0.69447500     0.85100
O103        O  0.47899063  0.05005345  0.72409796    -0.56900
O104        O  0.48350515  0.45481340  0.76828988    -0.60200
C105        C  0.04947056  0.16722597  0.74849230    -0.05900
C106        C  0.08655092  0.15909645  0.77241602     0.00100
C107        C  0.08985803  0.12002470  0.79663610    -0.08500
C108        C  0.05532306  0.09015364  0.79585893    -0.05900
C109        C  0.01921877  0.09757056  0.77000580     0.00100
C110        C  0.01612181  0.13667908  0.74593207    -0.08400
C111        C  0.47790491  0.15031751  0.71343870     0.62000
H112        H  0.04756869  0.19716688  0.73016848     0.12700
H113        H  0.05723058  0.05974996  0.81335868     0.12700
C114        C  0.13044941  0.10867495  0.82071058     0.62200
F115        F  0.47935501  0.19253803  0.69731141    -0.23000
F116        F  0.44087116  0.14604352  0.73668331    -0.20300
F117        F  0.47689024  0.12130408  0.67874652    -0.20000
F118        F  0.13736923  0.13860234  0.85401457    -0.20000
F119        F  0.16441833  0.10985619  0.79272453    -0.20300
F120        F  0.12862502  0.06704856  0.83820075    -0.23000
C121        C  0.05407847  0.34140169  0.70967884    -0.05900
C122        C  0.08718684  0.34697549  0.74001262     0.00100
C123        C  0.08810350  0.38514138  0.76665141    -0.08500
C124        C  0.05484189  0.41541290  0.76340036    -0.05900
C125        C  0.02074241  0.40935175  0.73436645     0.00100
C126        C  0.02072012  0.37218216  0.70612301    -0.08400
C127        C  0.48267594  0.35241112  0.67714744     0.62000
H128        H  0.05417878  0.31217396  0.68928773     0.12700
H129        H  0.05508399  0.44426781  0.78430004     0.12700
C130        C  0.12418692  0.39427617  0.79837978     0.62200
F131        F  0.48613399  0.31098945  0.65850240    -0.23000
F132        F  0.47593834  0.38218596  0.64444366    -0.20300
F133        F  0.44797094  0.35218760  0.70415911    -0.20000
F134        F  0.16277872  0.38938584  0.77801179    -0.20000
F135        F  0.12162704  0.36530831  0.83229136    -0.20300
F136        F  0.12270006  0.43665445  0.81513608    -0.23000
C137        C  0.16129865  0.11858488  0.54679695    -0.05900
C138        C  0.20005861  0.09794809  0.53864168     0.00100
C139        C  0.20516496  0.07335453  0.49993186    -0.08500
C140        C  0.17266014  0.07444696  0.46829629    -0.05900
C141        C  0.13539676  0.09861239  0.47499281     0.00100
C142        C  0.12808812  0.11793332  0.51622549    -0.08400
C143        C  0.08534280  0.13721998  0.52848403     0.62000
H144        H  0.15759723  0.13636239  0.57702825     0.12700
H145        H  0.17711033  0.05841777  0.43731223     0.12700
C146        C  0.24557343  0.04803230  0.49134580     0.62200
F147        F  0.08213873  0.14323373  0.57269986    -0.23000
F148        F  0.05299712  0.10891166  0.51543876    -0.20300
F149        F  0.07980328  0.17760782  0.50931309    -0.20000
F150        F  0.25124492  0.01688997  0.52301175    -0.20000
F151        F  0.27991418  0.07652659  0.49166375    -0.20300
F152        F  0.24424050  0.02644239  0.45175889    -0.23000
C153        C  0.37840847  0.15065654  0.48047823    -0.05900
C154        C  0.38886517  0.16600966  0.52233501     0.00100
C155        C  0.42962327  0.18479494  0.53024430    -0.08500
C156        C  0.45973966  0.18339797  0.49688876    -0.05900
C157        C  0.45008872  0.16409713  0.45668102     0.00100
C158        C  0.40856152  0.14916627  0.44745066    -0.08400
C159        C  0.39699277  0.13019554  0.40327516     0.62000
H160        H  0.34683604  0.13739189  0.47441054     0.12700
H161        H  0.98961682  0.18742092  0.49343035     0.12700
C162        C  0.44222563  0.20399661  0.57397237     0.62200
F163        F  0.35412537  0.12045628  0.39974226    -0.23000
F164        F  0.41943450  0.09194626  0.39581710    -0.20300
F165        F  0.40697616  0.16033542  0.37180017    -0.20000
F166        F  0.43782916  0.17253650  0.60548500    -0.20000
F167        F  0.41662183  0.23952853  0.58346145    -0.20300
F168        F  0.98457188  0.21102208  0.56545472    -0.23000
C169        C  0.44727974  0.36023392  0.94937249    -0.05900
C170        C  0.40718000  0.34416929  0.96031087     0.00100
C171        C  0.40088617  0.32541841  0.00141935    -0.08500
C172        C  0.43427115  0.32760349  0.03195706    -0.05900
C173        C  0.47319011  0.34749104  0.02213300     0.00100
C174        C  0.48093611  0.36112337  0.97925675    -0.08400
C175        C  0.02540478  0.38160082  0.96179896     0.62000
H176        H  0.45162381  0.37389898  0.91753423     0.12700
H177        H  0.42939597  0.31610535  0.06449507     0.12700
C178        C  0.35859501  0.30543716  0.01371762     0.62200
F179        F  0.02886484  0.37969103  0.91726315    -0.23000
F180        F  0.03299399  0.42445148  0.97517185    -0.20300
F181        F  0.05608588  0.35438494  0.97897157    -0.20000
F182        F  0.34886542  0.27091406  0.98584542    -0.20000
F183        F  0.32714846  0.33682010  0.01125188    -0.20300
F184        F  0.35931024  0.28935345  0.05534317    -0.23000
C185        C  0.14705531  0.42989253  0.99654845    -0.05900
C186        C  0.15918797  0.42205330  0.03943306     0.00100
C187        C  0.20263735  0.41953681  0.05049169    -0.08500
C188        C  0.23259625  0.42068412  0.01714571    -0.05900
C189        C  0.22019357  0.42445087  0.97360854     0.00100
C190        C  0.17699308  0.43189829  0.96323165    -0.08400
C191        C  0.16223164  0.43957954  0.91719445     0.62000
H192        H  0.11357258  0.43234887  0.98910597     0.12700
H193        H  0.26587860  0.41595372  0.02456097     0.12700
C194        C  0.21696383  0.41313766  0.09685135     0.62200
F195        F  0.17397290  0.40468421  0.89104628    -0.23000
F196        F  0.18046125  0.47789200  0.90223065    -0.20300
F197        F  0.11856748  0.44376557  0.91420882    -0.20000
F198        F  0.19946038  0.37489993  0.11282067    -0.20000
F199        F  0.20390717  0.44847955  0.12177196    -0.20300
F200        F  0.26069314  0.41018845  0.10042107    -0.23000
C201        C  0.31283294  0.32374187  0.25461593    -0.05900
C202        C  0.27303014  0.33622241  0.27036247     0.00100
C203        C  0.26776838  0.37872782  0.28877653    -0.08500
C204        C  0.30233262  0.40844424  0.28798722    -0.05900
C205        C  0.34136335  0.39640205  0.26996993     0.00100
C206        C  0.34732614  0.35305462  0.25448426    -0.08400
C207        C  0.38995899  0.33802754  0.23761534     0.62000
H208        H  0.31643003  0.29085219  0.24125309     0.12700
H209        H  0.29867485  0.44187707  0.29984169     0.12700
C210        C  0.22561974  0.39311633  0.30742905     0.62200
F211        F  0.39043408  0.29316847  0.22941441    -0.23000
F212        F  0.42129777  0.34751033  0.26793652    -0.20300
F213        F  0.39907792  0.35945709  0.19968946    -0.20000
F214        F  0.21546123  0.36680987  0.34197532    -0.20000
F215        F  0.19402553  0.38954967  0.27623744    -0.20300
F216        F  0.22695929  0.43629170  0.32207512    -0.23000
C217        C  0.29940658  0.15348880  0.20408296    -0.05900
C218        C  0.26385439  0.14695019  0.23026137     0.00100
C219        C  0.26019764  0.10777834  0.25417353    -0.08500
C220        C  0.29309292  0.07689112  0.25203438    -0.05900
C221        C  0.32991814  0.08425679  0.22783167     0.00100
C222        C  0.33306861  0.12298537  0.20287960    -0.08400
C223        C  0.37231128  0.13319489  0.17671510     0.62000
H224        H  0.30140455  0.18365405  0.18607536     0.12700
H225        H  0.29092416  0.04717932  0.27072189     0.12700
C226        C  0.22182013  0.09861159  0.28214967     0.62200
F227        F  0.40818301  0.13114930  0.20269306    -0.23000
F228        F  0.37079347  0.17488175  0.15930595    -0.20300
F229        F  0.37560678  0.10307852  0.14313812    -0.20000
F230        F  0.18493407  0.10433046  0.25837081    -0.20000
F231        F  0.22189846  0.12694212  0.31738924    -0.20300
F232        F  0.22175173  0.05602549  0.29744614    -0.23000
In233      In  0.17908218  0.74344512  0.25061316     1.36900
C234        C  0.12682096  0.70067834  0.30308896     0.77500
O235        O  0.14266164  0.80437834  0.23398151    -0.60900
O236        O  0.13979855  0.75173134  0.18873795    -0.51900
C237        C  0.24011316  0.80156589  0.26708299     0.70200
O238        O  0.21279089  0.79176012  0.29514902    -0.46700
C239        C  0.23470706  0.67956075  0.23687540     0.74900
O240        O  0.14254259  0.73776233  0.31316825    -0.58600
O241        O  0.21348252  0.69619221  0.20625275    -0.48700
O242        O  0.13638828  0.68680597  0.26602890    -0.55000
C243        C  0.12910457  0.79072852  0.19790329     0.85100
O244        O  0.23562686  0.78167406  0.23134384    -0.56900
O245        O  0.22739284  0.69571499  0.27372519    -0.60200
In246      In  0.42946410  0.49405856  0.24831535     1.36900
C247        C  0.48200511  0.95335243  0.20002147     0.77500
O248        O  0.46546771  0.55603870  0.26371273    -0.60900
O249        O  0.46875676  0.50488610  0.30955135    -0.51900
C250        C  0.36782188  0.55086382  0.23299232     0.70200
O251        O  0.39390476  0.53985383  0.20393373    -0.46700
C252        C  0.37350160  0.93087141  0.26580232     0.74900
O253        O  0.46305586  0.98770269  0.18793726    -0.58600
O254        O  0.39016340  0.95323564  0.29633000    -0.48700
O255        O  0.47401912  0.94193386  0.23809734    -0.55000
C256        C  0.47933061  0.54362934  0.29973644     0.85100
O257        O  0.37378701  0.53278353  0.26895434    -0.56900
O258        O  0.38485220  0.94179545  0.22849767    -0.60200
In259      In  0.30656670  0.88295247  0.87832649     1.36900
C260        C  0.35054929  0.93438273  0.82611463     0.77500
O261        O  0.35260427  0.89817612  0.93107773    -0.60900
O262        O  0.35781629  0.83577765  0.89971441    -0.51900
C263        C  0.24666873  0.90607700  0.93397786     0.70200
O264        O  0.25249978  0.92723091  0.89962642    -0.46700
C265        C  0.26027513  0.82789391  0.82920733     0.74900
O266        O  0.32958786  0.94997700  0.85725567    -0.58600
O267        O  0.28010543  0.81517287  0.86230553    -0.48700
O268        O  0.34806110  0.89323783  0.82142583    -0.55000
C269        C  0.37117708  0.86170449  0.92910160     0.85100
O270        O  0.27123110  0.87417257  0.93924402    -0.56900
O271        O  0.26453963  0.86818622  0.82121146    -0.60200
In272      In  0.05946592  0.87341225  0.11788481     1.36900
C273        C  0.01087336  0.92379251  0.16858555     0.77500
O274        O  0.02052927  0.89107551  0.06111925    -0.60900
O275        O  0.50722420  0.83446841  0.09011582    -0.51900
C276        C  0.12040542  0.89842711  0.06415470     0.70200
O277        O  0.11158242  0.92070282  0.09761830    -0.46700
C278        C  0.10393588  0.81920594  0.16908022     0.74900
O279        O  0.03568479  0.93981898  0.14111343    -0.58600
O280        O  0.08167683  0.80512208  0.13766245    -0.48700
O281        O  0.01181291  0.88245179  0.17091925    -0.55000
C282        C  0.50225977  0.85904589  0.05777646     0.85100
O283        O  0.09943485  0.86331723  0.05971393    -0.56900
O284        O  0.10325438  0.86040806  0.17411552    -0.60200
In285      In  0.05169473  0.62610959  0.38327675     1.36900
C286        C  0.10021331  0.67467077  0.33205300     0.77500
O287        O  0.08602935  0.64574311  0.44314815    -0.60900
O288        O  0.09782224  0.58180000  0.41875387    -0.51900
C289        C  0.48307734  0.65305590  0.42877683     0.70200
O290        O  0.49474845  0.67623501  0.39743709    -0.46700
C291        C  0.00815176  0.57337030  0.32972454     0.74900
O292        O  0.07570338  0.69162006  0.35947020    -0.58600
O293        O  0.03236889  0.55848474  0.35879344    -0.48700
O294        O  0.10001401  0.63318568  0.33100995    -0.55000
C295        C  0.10484387  0.60993597  0.44843665     0.85100
O296        O  0.00016506  0.61002069  0.42853472    -0.56900
O297        O  0.00761782  0.61475786  0.32722003    -0.60200
In298      In  0.30571440  0.62651583  0.62194407     1.36900
C299        C  0.35319613  0.57241517  0.66938910     0.77500
O300        O  0.33616810  0.61753365  0.55791599    -0.60900
O301        O  0.35651689  0.67194252  0.59601571    -0.51900
C302        C  0.23749908  0.60690878  0.57502372     0.68600
O303        O  0.25777444  0.57755379  0.59494729    -0.46700
C304        C  0.26333059  0.67784311  0.67674613     0.74900
O305        O  0.32956011  0.55848506  0.63904551    -0.58600
O306        O  0.28532539  0.69318304  0.64650812    -0.48700
O307        O  0.35253754  0.61350897  0.67517405    -0.55000
C308        C  0.36012345  0.65059433  0.56104740     0.85100
O309        O  0.25173815  0.64536371  0.58014719    -0.56900
O310        O  0.26492262  0.63657331  0.68041748    -0.60200
In311      In  0.18169390  0.75120145  0.75208060     1.36900
C312        C  0.23610092  0.70533092  0.70419017     0.77500
O313        O  0.22374508  0.80926720  0.76392278    -0.60900
O314        O  0.21815906  0.76283033  0.81451282    -0.51900
C315        C  0.12507329  0.81358604  0.73668010     0.70200
O316        O  0.14576481  0.79557091  0.70644091    -0.46700
C317        C  0.12199549  0.69116199  0.76419129     0.74900
O318        O  0.22020296  0.74112002  0.69166759    -0.58600
O319        O  0.14495157  0.70519833  0.79529573    -0.48700
O320        O  0.22516194  0.69384181  0.74143595    -0.55000
C321        C  0.23372760  0.79888053  0.80191063     0.85100
O322        O  0.13316846  0.79929885  0.77391029    -0.56900
O323        O  0.13086763  0.70699343  0.72791193    -0.60200
In324      In  0.43018579  0.49653145  0.74727763     1.36900
C325        C  0.37686898  0.96103513  0.79760198     0.77500
O326        O  0.39065699  0.55562583  0.73409242    -0.60900
O327        O  0.39276940  0.50639981  0.68494086    -0.51900
C328        C  0.48842538  0.55790177  0.76278747     0.70200
O329        O  0.46756466  0.54081123  0.79311294    -0.46700
C330        C  0.48879276  0.94281814  0.73465254     0.74900
O331        O  0.39130115  0.99863494  0.80772984    -0.58600
O332        O  0.46262699  0.95280554  0.70505952    -0.48700
O333        O  0.38821720  0.94674551  0.76124120    -0.55000
C334        C  0.37929740  0.54375666  0.69667703     0.85100
O335        O  0.47982507  0.54295948  0.72554557    -0.56900
O336        O  0.48413228  0.96410939  0.76945802    -0.60200
C337        C  0.04997060  0.66901727  0.74293431    -0.05900
C338        C  0.08584892  0.66029165  0.76850505     0.00100
C339        C  0.08708106  0.62156500  0.79344575    -0.08500
C340        C  0.05196247  0.59249360  0.79139284    -0.05900
C341        C  0.01685824  0.60070143  0.76440475     0.00100
C342        C  0.01547497  0.63980295  0.74016858    -0.08400
C343        C  0.47247627  0.64770862  0.72998441     0.62000
H344        H  0.04961844  0.69872451  0.72418848     0.12700
H345        H  0.05234541  0.56237968  0.80947022     0.12700
C346        C  0.12573110  0.61005417  0.82052598     0.62200
F347        F  0.47277759  0.69094895  0.71651063    -0.23000
F348        F  0.44030741  0.64299097  0.75966695    -0.20300
F349        F  0.46387656  0.62128264  0.69434475    -0.20000
F350        F  0.12909062  0.63896777  0.85517820    -0.20000
F351        F  0.16206038  0.61280220  0.79593103    -0.20300
F352        F  0.12313305  0.56773554  0.83633745    -0.23000
C353        C  0.05454583  0.83770544  0.71005025    -0.05900
C354        C  0.09346359  0.84860159  0.72995195     0.00100
C355        C  0.09996676  0.89143214  0.74716203    -0.08500
C356        C  0.06586450  0.92100769  0.74712942    -0.05900
C357        C  0.02613868  0.90947215  0.72936038     0.00100
C358        C  0.02057450  0.86776824  0.70912919    -0.08400
C359        C  0.47666811  0.85624721  0.68601906     0.62000
H360        H  0.05042032  0.80473715  0.69679423     0.12700
H361        H  0.06980628  0.95344856  0.76162504     0.12700
C362        C  0.14306645  0.90591291  0.76468502     0.62200
F363        F  0.47708934  0.81350283  0.67014872    -0.23000
F364        F  0.47063203  0.88401030  0.65151238    -0.20300
F365        F  0.44293740  0.86016978  0.71404447    -0.20000
F366        F  0.17332185  0.89998055  0.73310757    -0.20000
F367        F  0.15394290  0.88138151  0.80029013    -0.20300
F368        F  0.14347520  0.94984797  0.77695159    -0.23000
C369        C  0.16488551  0.62572962  0.55447681    -0.05900
C370        C  0.19990693  0.59860710  0.54748635     0.00100
C371        C  0.20055495  0.57020080  0.51101005    -0.08500
C372        C  0.16697971  0.57239861  0.48076048    -0.05900
C373        C  0.13391225  0.60280116  0.48563881     0.00100
C374        C  0.13135927  0.62798988  0.52453674    -0.08400
C375        C  0.09431848  0.65811987  0.53461361     0.62000
H376        H  0.16502231  0.64696337  0.58279010     0.12700
H377        H  0.16795467  0.55262164  0.45155789     0.12700
C378        C  0.23812868  0.54061119  0.50218105     0.62200
F379        F  0.09342392  0.66973977  0.57797365    -0.23000
F380        F  0.05638158  0.63705100  0.52476682    -0.20300
F381        F  0.09768049  0.69628958  0.51103790    -0.20000
F382        F  0.24410364  0.51232686  0.53627229    -0.20000
F383        F  0.27424167  0.56601624  0.49709351    -0.20300
F384        F  0.23215544  0.51542699  0.46506707    -0.23000
C385        C  0.37769190  0.65033454  0.48359128    -0.05900
C386        C  0.39002638  0.66170643  0.52613241     0.00100
C387        C  0.43176226  0.67763274  0.53432734    -0.08500
C388        C  0.46035484  0.67933084  0.49976623    -0.05900
C389        C  0.44873962  0.66467274  0.45826042     0.00100
C390        C  0.40669719  0.65113963  0.44942271    -0.08400
C391        C  0.39347487  0.63570732  0.40442244     0.62000
H392        H  0.34570438  0.63863310  0.47771587     0.12700
H393        H  0.99360072  0.68892669  0.50495397     0.12700
C394        C  0.44720040  0.68939291  0.57961429     0.62200
F395        F  0.35110541  0.62352796  0.40245164    -0.23000
F396        F  0.41742067  0.59979705  0.39201505    -0.20300
F397        F  0.39989943  0.66935249  0.37551740    -0.20000
F398        F  0.44150051  0.65390316  0.60650798    -0.20000
F399        F  0.42473861  0.72501074  0.59524178    -0.20300
F400        F  0.98755960  0.70778092  0.57866029    -0.23000
C401        C  0.44722274  0.85635916  0.94766756    -0.05900
C402        C  0.40505648  0.85082949  0.96014340     0.00100
C403        C  0.39558054  0.84174178  0.00365801    -0.08500
C404        C  0.42890220  0.84074060  0.03423637    -0.05900
C405        C  0.47078657  0.85060053  0.02262859     0.00100
C406        C  0.48049356  0.85680998  0.97833046    -0.08400
C407        C  0.01943585  0.88027144  0.96631954     0.62000
H408        H  0.45359636  0.86364458  0.91417110     0.12700
H409        H  0.42193303  0.83585274  0.06802441     0.12700
C410        C  0.35000169  0.83583785  0.01784342     0.62200
F411        F  0.02195579  0.88267269  0.92179549    -0.23000
F412        F  0.02634924  0.92197704  0.98330806    -0.20300
F413        F  0.05087359  0.85208408  0.98017442    -0.20000
F414        F  0.32989452  0.80466537  0.99182885    -0.20000
F415        F  0.32892079  0.87537631  0.01445514    -0.20300
F416        F  0.34753311  0.82217086  0.06018451    -0.23000
C417        C  0.13998417  0.91111327  0.98822219    -0.05900
C418        C  0.15245241  0.91120814  0.03190526     0.00100
C419        C  0.19575958  0.91673329  0.04287902    -0.08500
C420        C  0.22558483  0.91918315  0.00940505    -0.05900
C421        C  0.21330287  0.91571002  0.96577178     0.00100
C422        C  0.16978216  0.91272018  0.95471729    -0.08400
C423        C  0.15526533  0.90817696  0.90795086     0.62000
H424        H  0.10673263  0.90793228  0.98049509     0.12700
H425        H  0.25913040  0.92140774  0.01709213     0.12700
C426        C  0.21047263  0.91695944  0.08961622     0.62200
F427        F  0.17448384  0.87218029  0.88883690    -0.23000
F428        F  0.16616428  0.94570385  0.88576121    -0.20300
F429        F  0.11178227  0.90232721  0.90435091    -0.20000
F430        F  0.19845623  0.87808456  0.10890775    -0.20000
F431        F  0.19233602  0.95194917  0.11140709    -0.20300
F432        F  0.25412508  0.92104388  0.09331963    -0.23000
C433        C  0.31411212  0.82294373  0.25448283    -0.05900
C434        C  0.27544015  0.83318369  0.27417086     0.00100
C435        C  0.27089727  0.87409708  0.29603796    -0.08500
C436        C  0.30461661  0.90481386  0.29445204    -0.05900
C437        C  0.34222919  0.89528980  0.27230661     0.00100
C438        C  0.34790354  0.85309564  0.25365353    -0.08400
C439        C  0.38972797  0.83968741  0.23353073     0.62000
H440        H  0.31737580  0.79110044  0.23873735     0.12700
H441        H  0.30125453  0.93716786  0.30905306     0.12700
C442        C  0.23037986  0.88573081  0.31959165     0.62200
F443        F  0.39070766  0.79510102  0.22402259    -0.23000
F444        F  0.42271447  0.84904561  0.26202935    -0.20300
F445        F  0.39600021  0.86223141  0.19563491    -0.20000
F446        F  0.22457290  0.85702512  0.35334264    -0.20000
F447        F  0.19599688  0.88276657  0.29157116    -0.20300
F448        F  0.23176631  0.92802900  0.33657640    -0.23000
C449        C  0.30339709  0.65346409  0.20799492    -0.05900
C450        C  0.26614663  0.64420387  0.23078412     0.00100
C451        C  0.26115400  0.60285584  0.25058218    -0.08500
C452        C  0.29421614  0.57223579  0.24765011    -0.05900
C453        C  0.33245377  0.58214881  0.22690338     0.00100
C454        C  0.33724488  0.62324451  0.20634038    -0.08400
C455        C  0.37870577  0.63617434  0.18528161     0.62000
H456        H  0.30660265  0.68545978  0.19346094     0.12700
H457        H  0.29118502  0.54078450  0.26333809     0.12700
C458        C  0.22151208  0.59152059  0.27574116     0.62200
F459        F  0.41170458  0.63300671  0.21485910    -0.23000
F460        F  0.37788580  0.67894184  0.17052188    -0.20300
F461        F  0.38637249  0.60857422  0.15046919    -0.20000
F462        F  0.18577399  0.59937828  0.25082027    -0.20000
F463        F  0.22005274  0.61699749  0.31295531    -0.20300
F464        F  0.22071730  0.54775329  0.28754440    -0.23000
In465      In  0.67878672  0.24698576  0.25161462     1.36900
C466        C  0.62608968  0.20273546  0.30265439     0.77500
O467        O  0.63944320  0.30576113  0.23673484    -0.60900
O468        O  0.64126491  0.25490132  0.18921431    -0.51900
C469        C  0.74001529  0.30597710  0.26541853     0.70200
O470        O  0.71312724  0.29680891  0.29415968    -0.46700
C471        C  0.73398174  0.18315390  0.23968646     0.74900
O472        O  0.64231565  0.23925963  0.31406043    -0.58600
O473        O  0.71288859  0.19873578  0.20839977    -0.48700
O474        O  0.63561699  0.19009632  0.26516444    -0.55000
C475        C  0.62804272  0.29267535  0.19969927     0.85100
O476        O  0.73495081  0.28524304  0.23021750    -0.56900
O477        O  0.72702161  0.20098757  0.27588298    -0.60200
In478      In  0.92892048  0.99550988  0.24519439     1.36900
C479        C  0.98388503  0.45670389  0.19803589     0.77500
O480        O  0.96940728  0.05478253  0.25728519    -0.60900
O481        O  0.96776094  0.00582890  0.30586943    -0.51900
C482        C  0.86699527  0.05336201  0.23428300     0.70200
O483        O  0.89072974  0.04152349  0.20346233    -0.46700
C484        C  0.87554707  0.43323194  0.26457368     0.74900
O485        O  0.96738538  0.49311717  0.18814205    -0.58600
O486        O  0.89606646  0.45168303  0.29522709    -0.48700
O487        O  0.97346719  0.44254113  0.23449022    -0.55000
C488        C  0.98180097  0.04273738  0.29403139     0.85100
O489        O  0.87612431  0.03607103  0.26999197    -0.56900
O490        O  0.88337241  0.44759527  0.22745617    -0.60200
In491      In  0.80609697  0.37961663  0.87811945     1.36900
C492        C  0.84739463  0.43209480  0.82469387     0.77500
O493        O  0.85822492  0.39921069  0.92325090    -0.60900
O494        O  0.85369836  0.33159012  0.90520033    -0.51900
C495        C  0.74675576  0.39943494  0.93581759     0.70200
O496        O  0.75343504  0.42329277  0.90350801    -0.46700
C497        C  0.76199974  0.32541890  0.82690011     0.74900
O498        O  0.82785990  0.44688104  0.85713838    -0.58600
O499        O  0.78648612  0.31133899  0.85602673    -0.48700
O500        O  0.84457406  0.39103100  0.81900737    -0.55000
C501        C  0.87247842  0.36094328  0.92749431     0.85100
O502        O  0.76980898  0.36597118  0.93778891    -0.56900
O503        O  0.76072380  0.36667931  0.82378921    -0.60200
In504      In  0.56036287  0.37489306  0.11921518     1.36900
C505        C  0.51141538  0.42458257  0.16965363     0.77500
O506        O  0.52369522  0.39243381  0.06044978    -0.60900
O507        O  0.01085041  0.33889665  0.08597453    -0.51900
C508        C  0.62360175  0.39813637  0.06866173     0.70200
O509        O  0.61369864  0.42140249  0.10111705    -0.46700
C510        C  0.60295647  0.32080633  0.17101306     0.74900
O511        O  0.53696821  0.44111274  0.14311870    -0.58600
O512        O  0.58208146  0.30671691  0.13867054    -0.48700
O513        O  0.51130499  0.38314748  0.17052328    -0.55000
C514        C  0.00414987  0.36521936  0.05535117     0.85100
O515        O  0.60252421  0.36320337  0.06372556    -0.56900
O516        O  0.60140511  0.36182385  0.17688000    -0.60200
In517      In  0.55045403  0.12641411  0.38126786     1.36900
C518        C  0.59898125  0.17600886  0.33065553     0.77500
O519        O  0.58767588  0.14397425  0.43951161    -0.60900
O520        O  0.59722811  0.08012065  0.41404758    -0.51900
C521        C  0.98349449  0.14228985  0.42121748     0.70200
O522        O  0.00103381  0.17108637  0.39818523    -0.46700
C523        C  0.50567514  0.07250824  0.32965442     0.74900
O524        O  0.57614329  0.19222318  0.35992339    -0.58600
O525        O  0.52817392  0.05840680  0.36041643    -0.48700
O526        O  0.59680388  0.13466220  0.32709293    -0.55000
C527        C  0.60579621  0.10767932  0.44382718     0.85100
O528        O  0.50126103  0.11404979  0.43036170    -0.56900
O529        O  0.50734790  0.11358094  0.32459975    -0.60200
In530      In  0.80581633  0.12200529  0.61815064     1.36900
C531        C  0.85331345  0.07085007  0.66862630     0.77500
O532        O  0.83838694  0.10727494  0.55631811    -0.60900
O533        O  0.85662192  0.16585075  0.58900078    -0.51900
C534        C  0.73772211  0.10136628  0.57097964     0.68600
O535        O  0.75561642  0.07312596  0.59452426    -0.46700
C536        C  0.76368381  0.17555542  0.67152422     0.74900
O537        O  0.83049384  0.05524086  0.63838440    -0.58600
O538        O  0.78592231  0.18993061  0.64095011    -0.48700
O539        O  0.85175331  0.11208266  0.67284507    -0.55000
C540        C  0.86141620  0.14116200  0.55632090     0.85100
O541        O  0.75423232  0.13911920  0.57252686    -0.56900
O542        O  0.76464733  0.13434163  0.67582439    -0.60200
In543      In  0.68388413  0.25046977  0.74828571     1.36900
C544        C  0.73712926  0.20378378  0.69918326     0.77500
O545        O  0.72407082  0.30934173  0.76207233    -0.60900
O546        O  0.72289580  0.25921802  0.80950809    -0.51900
C547        C  0.62698826  0.31295024  0.73396828     0.70200
O548        O  0.64688284  0.29463129  0.70327908    -0.46700
C549        C  0.62295024  0.19254306  0.76305479     0.74900
O550        O  0.72334420  0.24094118  0.68788383    -0.58600
O551        O  0.64755595  0.20608491  0.79301587    -0.48700
O552        O  0.72463516  0.19145145  0.73560838    -0.55000
C553        C  0.73616988  0.29682502  0.79873982     0.85100
O554        O  0.63641100  0.29920187  0.77108716    -0.56900
O555        O  0.63077659  0.20782321  0.72628288    -0.60200
In556      In  0.93045588  0.99932600  0.75025683     1.36900
C557        C  0.87317613  0.45960721  0.79642419     0.77500
O558        O  0.88954324  0.05691951  0.73483444    -0.60900
O559        O  0.89454283  0.00679121  0.68681750    -0.51900
C560        C  0.98739293  0.06214605  0.76457095     0.70200
O561        O  0.96677917  0.04552253  0.79538443    -0.46700
C562        C  0.98575265  0.44205241  0.73721364     0.74900
O563        O  0.88924172  0.49605823  0.80822325    -0.58600
O564        O  0.96078188  0.45200936  0.70657840    -0.48700
O565        O  0.88285714  0.44706885  0.75890820    -0.55000
C566        C  0.87956542  0.04385104  0.69736662     0.85100
O567        O  0.97885031  0.04622168  0.72775699    -0.56900
O568        O  0.97945167  0.46321176  0.77181442    -0.60200
C569        C  0.55002755  0.17055192  0.74433459    -0.05900
C570        C  0.58655125  0.16234118  0.76920207     0.00100
C571        C  0.58832817  0.12426520  0.79507858    -0.08500
C572        C  0.55343261  0.09490121  0.79413451    -0.05900
C573        C  0.51832182  0.10193905  0.76688294     0.00100
C574        C  0.51598085  0.14071094  0.74228762    -0.08400
C575        C  0.97830857  0.14580544  0.71657075     0.62000
H576        H  0.54907843  0.19987355  0.72506114     0.12700
H577        H  0.55441320  0.06500890  0.81247207     0.12700
C578        C  0.62790727  0.11302088  0.82085054     0.62200
F579        F  0.97931283  0.18811915  0.70060426    -0.23000
F580        F  0.94097869  0.14076116  0.73913279    -0.20300
F581        F  0.97841402  0.11700381  0.68170794    -0.20000
F582        F  0.63525352  0.14476849  0.85239291    -0.20000
F583        F  0.66240717  0.11102896  0.79359981    -0.20300
F584        F  0.62416573  0.07279108  0.84094535    -0.23000
C585        C  0.55725527  0.33637651  0.70420944    -0.05900
C586        C  0.59430698  0.34713222  0.72775027     0.00100
C587        C  0.59791173  0.38890678  0.74813054    -0.08500
C588        C  0.56290616  0.41713368  0.74722402    -0.05900
C589        C  0.52493245  0.40567011  0.72583335     0.00100
C590        C  0.52233197  0.36533720  0.70246905    -0.08400
C591        C  0.98568638  0.36464941  0.67288520     0.62000
H592        H  0.55535020  0.30435075  0.68842711     0.12700
H593        H  0.56478953  0.44868486  0.76388049     0.12700
C594        C  0.63892160  0.40421812  0.76977766     0.62200
F595        F  0.99118043  0.32584679  0.64983997    -0.23000
F596        F  0.98560607  0.39877355  0.64378919    -0.20300
F597        F  0.94677376  0.36252809  0.69309796    -0.20000
F598        F  0.67175187  0.40133164  0.74060141    -0.20000
F599        F  0.64798200  0.37835838  0.80492717    -0.20300
F600        F  0.63657318  0.44745504  0.78413060    -0.23000
C601        C  0.66461019  0.11880195  0.55116061    -0.05900
C602        C  0.70018856  0.09274710  0.54338438     0.00100
C603        C  0.70202912  0.06663820  0.50536134    -0.08500
C604        C  0.66896072  0.06998647  0.47455749    -0.05900
C605        C  0.63518603  0.09938799  0.48055619     0.00100
C606        C  0.63174937  0.12256185  0.52057797    -0.08400
C607        C  0.59438344  0.15222252  0.53109031     0.62000
H608        H  0.66405361  0.13845053  0.58055030     0.12700
H609        H  0.67070511  0.05182035  0.44439857     0.12700
C610        C  0.73999162  0.03763777  0.49636126     0.62200
F611        F  0.59394975  0.16428711  0.57432042    -0.23000
F612        F  0.55660857  0.13050190  0.52185838    -0.20300
F613        F  0.59676700  0.19036101  0.50735185    -0.20000
F614        F  0.74404402  0.00692531  0.52866657    -0.20000
F615        F  0.77647292  0.06305456  0.49509800    -0.20300
F616        F  0.73591989  0.01535955  0.45728778    -0.23000
C617        C  0.87991189  0.13114999  0.47959621    -0.05900
C618        C  0.89084648  0.14979627  0.52006957     0.00100
C619        C  0.93027171  0.17228277  0.52496672    -0.08500
C620        C  0.95833180  0.17267401  0.48983598    -0.05900
C621        C  0.94835494  0.15123564  0.45078304     0.00100
C622        C  0.90807875  0.13146220  0.44471841    -0.08400
C623        C  0.89499520  0.11115139  0.40148507     0.62000
H624        H  0.84927548  0.11508601  0.47576543     0.12700
H625        H  0.49187820  0.19477274  0.50275703     0.12700
C626        C  0.94390949  0.19365699  0.56739415     0.62200
F627        F  0.85380193  0.09504460  0.40201399    -0.23000
F628        F  0.92154132  0.07673550  0.39085113    -0.20300
F629        F  0.89738588  0.14274159  0.36984330    -0.20000
F630        F  0.94342617  0.16288046  0.59988388    -0.20000
F631        F  0.91657360  0.22756759  0.57747978    -0.20300
F632        F  0.48399542  0.21844441  0.57483096    -0.23000
C633        C  0.94837721  0.36501240  0.94594827    -0.05900
C634        C  0.90750416  0.35216793  0.95775556     0.00100
C635        C  0.89959265  0.33867343  0.00044437    -0.08500
C636        C  0.93284878  0.34071933  0.03102342    -0.05900
C637        C  0.97308755  0.35675453  0.02006616     0.00100
C638        C  0.98169531  0.36721174  0.97639127    -0.08400
C639        C  0.52411077  0.37714551  0.96471668     0.62000
H640        H  0.95349451  0.37553472  0.91306457     0.12700
H641        H  0.92695259  0.33234005  0.06433392     0.12700
C642        C  0.85549477  0.32465007  0.01384980     0.62200
F643        F  0.52743329  0.37546728  0.92015797    -0.23000
F644        F  0.53032903  0.42016883  0.97826418    -0.20300
F645        F  0.55571880  0.35085742  0.98156329    -0.20000
F646        F  0.84250180  0.28869936  0.98926369    -0.20000
F647        F  0.82765726  0.35883146  0.00739890    -0.20300
F648        F  0.85401286  0.31336377  0.05695524    -0.23000
C649        C  0.64329841  0.41760184  0.99491294    -0.05900
C650        C  0.65649146  0.40984884  0.03749245     0.00100
C651        C  0.69994079  0.40470930  0.04709103    -0.08500
C652        C  0.72882164  0.40444753  0.01283172    -0.05900
C653        C  0.71538348  0.40904299  0.96973995     0.00100
C654        C  0.67211978  0.41732385  0.96052548    -0.08400
C655        C  0.65597496  0.42246470  0.91459415     0.62000
H656        H  0.60978192  0.42150750  0.98857399     0.12700
H657        H  0.76206681  0.39933760  0.01936556     0.12700
C658        C  0.71528712  0.39806205  0.09309813     0.62200
F659        F  0.66460770  0.38471279  0.89107358    -0.23000
F660        F  0.67567488  0.45801780  0.89572583    -0.20300
F661        F  0.61260128  0.42945662  0.91297190    -0.20000
F662        F  0.69617356  0.36121385  0.11026307    -0.20000
F663        F  0.70496013  0.43452807  0.11784135    -0.20300
F664        F  0.75882361  0.39247605  0.09534680    -0.23000
C665        C  0.81494426  0.32593532  0.25404534    -0.05900
C666        C  0.77552995  0.33768285  0.27148295     0.00100
C667        C  0.77034047  0.38015585  0.29001562    -0.08500
C668        C  0.80503180  0.40967891  0.28995528    -0.05900
C669        C  0.84367027  0.39833163  0.27081117     0.00100
C670        C  0.84913016  0.35576878  0.25302751    -0.08400
C671        C  0.89089192  0.34225180  0.23279112     0.62000
H672        H  0.81835902  0.29335529  0.23994252     0.12700
H673        H  0.80155430  0.44279040  0.30273311     0.12700
C674        C  0.72773334  0.39524582  0.30695188     0.62200
F675        F  0.89083294  0.29829325  0.22068217    -0.23000
F676        F  0.92370326  0.34913966  0.26212637    -0.20300
F677        F  0.89832961  0.36684639  0.19636165    -0.20000
F678        F  0.71627832  0.37011291  0.34188825    -0.20000
F679        F  0.69719616  0.39087226  0.27476223    -0.20300
F680        F  0.72878915  0.43887327  0.32023482    -0.23000
C681        C  0.79346964  0.14744002  0.20087309    -0.05900
C682        C  0.76464798  0.14686000  0.23513146     0.00100
C683        C  0.76671018  0.11278410  0.26575171    -0.08500
C684        C  0.79982385  0.08230705  0.26294737    -0.05900
C685        C  0.83071762  0.08438422  0.23051275     0.00100
C686        C  0.82673420  0.11662245  0.19790659    -0.08400
C687        C  0.85792580  0.11961536  0.16103032     0.62000
H688        H  0.79069269  0.17334606  0.17741341     0.12700
H689        H  0.80227755  0.05700518  0.28706568     0.12700
C690        C  0.73415831  0.10841948  0.30146652     0.62200
F691        F  0.89853729  0.12620026  0.17727672    -0.23000
F692        F  0.84864713  0.15406631  0.13377524    -0.20300
F693        F  0.85648964  0.08116663  0.13674690    -0.20000
F694        F  0.69357658  0.11325112  0.28478667    -0.20000
F695        F  0.74156860  0.14019940  0.33298333    -0.20300
F696        F  0.73603531  0.06767712  0.32079128    -0.23000
In697      In  0.67716299  0.74757340  0.25212510     1.36900
C698        C  0.62295080  0.70537932  0.30240322     0.77500
O699        O  0.63881346  0.80736196  0.23722693    -0.60900
O700        O  0.64081240  0.75717022  0.18911407    -0.51900
C701        C  0.73924934  0.80521371  0.26574046     0.70200
O702        O  0.71153416  0.79757875  0.29409320    -0.46700
C703        C  0.73075166  0.68149548  0.24238398     0.74900
O704        O  0.64150561  0.74033465  0.31491289    -0.58600
O705        O  0.71023388  0.69698373  0.21064795    -0.48700
O706        O  0.63080444  0.69362969  0.26422521    -0.55000
C707        C  0.62761070  0.79487953  0.19991704     0.85100
O708        O  0.73478682  0.78334201  0.23110161    -0.56900
O709        O  0.72374907  0.70018495  0.27815189    -0.60200
In710      In  0.92967617  0.49799494  0.25025981     1.36900
C711        C  0.98262537  0.95057095  0.19568049     0.77500
O712        O  0.96643629  0.55933298  0.26636449    -0.60900
O713        O  0.97080725  0.50645314  0.31032556    -0.51900
C714        C  0.86587105  0.55371939  0.23804267     0.70200
O715        O  0.89002624  0.54212577  0.20748324    -0.46700
C716        C  0.87311812  0.93319251  0.25990069     0.74900
O717        O  0.96631298  0.98638500  0.18360740    -0.58600
O718        O  0.89569756  0.94974423  0.29007603    -0.48700
O719        O  0.97192050  0.93851792  0.23278960    -0.55000
C720        C  0.98154331  0.54537083  0.30134839     0.85100
O721        O  0.87535489  0.53716969  0.27399545    -0.56900
O722        O  0.87969821  0.94813700  0.22269469    -0.60200
In723      In  0.80314223  0.88015699  0.88197597     1.36900
C724        C  0.84847266  0.92935808  0.82816114     0.77500
O725        O  0.86104447  0.89556148  0.92068429    -0.60900
O726        O  0.84252050  0.82838919  0.91526624    -0.51900
C727        C  0.74792869  0.90747213  0.94149287     0.70200
O728        O  0.75199130  0.92700135  0.90603644    -0.46700
C729        C  0.75669599  0.82588811  0.83171277     0.74900
O730        O  0.82782877  0.94581744  0.85910712    -0.58600
O731        O  0.78072691  0.81193790  0.86121550    -0.48700
O732        O  0.84463138  0.88817481  0.82386260    -0.55000
C733        C  0.86791128  0.85644737  0.93146247     0.85100
O734        O  0.77194749  0.87512595  0.94592709    -0.56900
O735        O  0.75650060  0.86710155  0.82804056    -0.60200
In736      In  0.55894238  0.87789284  0.12039965     1.36900
C737        C  0.50993647  0.92729660  0.17182362     0.77500
O738        O  0.52537100  0.89287501  0.05841838    -0.60900
O739        O  0.00906291  0.82822396  0.08769728    -0.51900
C740        C  0.62396782  0.90323660  0.07279211     0.70200
O741        O  0.61131207  0.92656552  0.10417570    -0.46700
C742        C  0.60239810  0.82336405  0.17144418     0.74900
O743        O  0.53222808  0.94366611  0.14236644    -0.58600
O744        O  0.58052577  0.80944788  0.13965455    -0.48700
O745        O  0.51303449  0.88618745  0.17512367    -0.55000
C746        C  0.00051830  0.85531548  0.05814560     0.85100
O747        O  0.60460106  0.86725202  0.06747081    -0.56900
O748        O  0.60142195  0.86444516  0.17714126    -0.60200
In749      In  0.54722993  0.62872807  0.37983609     1.36900
C750        C  0.59550245  0.67888624  0.32999302     0.77500
O751        O  0.58695945  0.64792503  0.43581549    -0.60900
O752        O  0.59377134  0.58255804  0.41281733    -0.51900
C753        C  0.98564590  0.64846315  0.42987478     0.70200
O754        O  0.00420204  0.67599270  0.40624914    -0.46700
C755        C  0.50452434  0.57314155  0.32804079     0.74900
O756        O  0.57451855  0.69466376  0.36089405    -0.58600
O757        O  0.52801113  0.55987713  0.35843212    -0.48700
O758        O  0.59139266  0.63794212  0.32442622    -0.55000
C759        C  0.60405703  0.61119658  0.44107281     0.85100
O760        O  0.50327439  0.61798050  0.43382947    -0.56900
O761        O  0.50372443  0.61434343  0.32380268    -0.60200
In762      In  0.80272468  0.62911449  0.61746891     1.36900
C763        C  0.84932544  0.57657132  0.66722692     0.77500
O764        O  0.83735958  0.61826446  0.55669842    -0.60900
O765        O  0.85306193  0.67607989  0.59216497    -0.51900
C766        C  0.73661980  0.60756399  0.56785219     0.68600
O767        O  0.75656777  0.57874278  0.58880051    -0.46700
C768        C  0.75916053  0.67973627  0.67190176     0.74900
O769        O  0.82779862  0.56198930  0.63558263    -0.58600
O770        O  0.77950440  0.69546816  0.64064757    -0.48700
O771        O  0.84690599  0.61754247  0.67326304    -0.55000
C772        C  0.85944294  0.65271465  0.55890272     0.85100
O773        O  0.74993775  0.64629375  0.57341750    -0.56900
O774        O  0.76224656  0.63860301  0.67595346    -0.60200
In775      In  0.67915741  0.74999419  0.75211504     1.36900
C776        C  0.73260403  0.70645558  0.70076807     0.77500
O777        O  0.71981117  0.80886834  0.76616774    -0.60900
O778        O  0.71666470  0.75992642  0.81446868    -0.51900
C779        C  0.62116606  0.81190903  0.73874876     0.70200
O780        O  0.64191581  0.79492117  0.70799914    -0.46700
C781        C  0.62188396  0.68751398  0.76557001     0.74900
O782        O  0.71637651  0.74269200  0.69007773    -0.58600
O783        O  0.64658381  0.70094649  0.79546577    -0.48700
O784        O  0.72275334  0.69367874  0.73786237    -0.55000
C785        C  0.73075198  0.79713566  0.80345408     0.85100
O786        O  0.62961734  0.79658815  0.77550244    -0.56900
O787        O  0.62734646  0.70561170  0.72962303    -0.60200
In788      In  0.92660488  0.50345493  0.74673732     1.36900
C789        C  0.87628510  0.95541429  0.80018559     0.77500
O790        O  0.88345103  0.55978767  0.73387553    -0.60900
O791        O  0.89219079  0.51308119  0.68299223    -0.51900
C792        C  0.98392537  0.56628651  0.75917652     0.70200
O793        O  0.96363249  0.55008233  0.79039540    -0.46700
C794        C  0.99083674  0.94068900  0.73604679     0.74900
O795        O  0.89031939  0.99318200  0.81037105    -0.58600
O796        O  0.96451588  0.95139464  0.70693018    -0.48700
O797        O  0.88930738  0.94078396  0.76453426    -0.55000
C798        C  0.87533472  0.54872747  0.69532600     0.85100
O799        O  0.97464238  0.55021923  0.72254725    -0.56900
O800        O  0.98535461  0.95933685  0.77215475    -0.60200
C801        C  0.54826477  0.66501001  0.75183839    -0.05900
C802        C  0.58735734  0.65496611  0.77121799     0.00100
C803        C  0.59279735  0.61380895  0.79149716    -0.08500
C804        C  0.55868352  0.58340607  0.79045816    -0.05900
C805        C  0.52028516  0.59310338  0.76930446     0.00100
C806        C  0.51448103  0.63482820  0.75061702    -0.08400
C807        C  0.97774132  0.65092911  0.71148286     0.62000
H808        H  0.54464986  0.69672002  0.73687927     0.12700
H809        H  0.56236101  0.55121301  0.80429997     0.12700
C810        C  0.63497546  0.60114264  0.81170186     0.62200
F811        F  0.98096576  0.69290707  0.69493220    -0.23000
F812        F  0.94074593  0.64866550  0.73503576    -0.20300
F813        F  0.97526312  0.62166927  0.67707737    -0.20000
F814        F  0.64442469  0.62915892  0.84596864    -0.20000
F815        F  0.66671467  0.60400561  0.78128438    -0.20300
F816        F  0.63431280  0.55856700  0.82704280    -0.23000
C817        C  0.55103533  0.83735279  0.71152428    -0.05900
C818        C  0.58943684  0.84717696  0.73297543     0.00100
C819        C  0.59591451  0.88962757  0.75111081    -0.08500
C820        C  0.56232112  0.91986165  0.75018205    -0.05900
C821        C  0.52324276  0.90980926  0.73008475     0.00100
C822        C  0.51776133  0.86829553  0.70925753    -0.08400
C823        C  0.97840189  0.85445023  0.68870924     0.62000
H824        H  0.54696257  0.80476004  0.69744369     0.12700
H825        H  0.56642696  0.95202340  0.76515762     0.12700
C826        C  0.63879665  0.90347345  0.76969017     0.62200
F827        F  0.97903944  0.81177262  0.67273307    -0.23000
F828        F  0.96912618  0.88200587  0.65475679    -0.20300
F829        F  0.94658675  0.85732366  0.71908511    -0.20000
F830        F  0.66940008  0.89855004  0.73830158    -0.20000
F831        F  0.64926081  0.87783183  0.80466728    -0.20300
F832        F  0.63910538  0.94701739  0.78328759    -0.23000
C833        C  0.66350308  0.62330203  0.54769471    -0.05900
C834        C  0.69983393  0.59863609  0.53937451     0.00100
C835        C  0.70241645  0.57326888  0.50088539    -0.08500
C836        C  0.66885758  0.57563562  0.47051236    -0.05900
C837        C  0.63410150  0.60357515  0.47727945     0.00100
C838        C  0.63034115  0.62628868  0.51747768    -0.08400
C839        C  0.59199995  0.65419000  0.52883919     0.62000
H840        H  0.66241224  0.64235902  0.57743716     0.12700
H841        H  0.67088393  0.55798043  0.44007554     0.12700
C842        C  0.74154213  0.54636615  0.49079257     0.62200
F843        F  0.59193596  0.66612147  0.57212540    -0.23000
F844        F  0.55510441  0.63068819  0.52032490    -0.20300
F845        F  0.59217317  0.69246346  0.50521016    -0.20000
F846        F  0.74729235  0.51494415  0.52215643    -0.20000
F847        F  0.77684579  0.57355759  0.48990058    -0.20300
F848        F  0.73807468  0.52503884  0.45115363    -0.23000
C849        C  0.87893807  0.64828157  0.48257219    -0.05900
C850        C  0.89001833  0.66283252  0.52446881     0.00100
C851        C  0.93140182  0.67970031  0.53273174    -0.08500
C852        C  0.96119989  0.67804948  0.49920333    -0.05900
C853        C  0.95079503  0.65974186  0.45874825     0.00100
C854        C  0.90888649  0.64598820  0.44950066    -0.08400
C855        C  0.89644239  0.62802379  0.40517969     0.62000
H856        H  0.84677451  0.63625396  0.47649402     0.12700
H857        H  0.49303000  0.68919918  0.50544953     0.12700
C858        C  0.94470965  0.69743082  0.57683430     0.62200
F859        F  0.85339860  0.61893871  0.40214280    -0.23000
F860        F  0.91820591  0.58958629  0.39663320    -0.20300
F861        F  0.90634308  0.65865785  0.37415914    -0.20000
F862        F  0.93688596  0.66647179  0.60810857    -0.20000
F863        F  0.92209906  0.73518089  0.58596430    -0.20300
F864        F  0.48989714  0.70041160  0.58055560    -0.23000
C865        C  0.94292497  0.86294302  0.95066255    -0.05900
C866        C  0.90315875  0.84589060  0.96101876     0.00100
C867        C  0.89705443  0.82569703  0.00149296    -0.08500
C868        C  0.93070075  0.82657208  0.03191083    -0.05900
C869        C  0.96947855  0.84716503  0.02268552     0.00100
C870        C  0.97659132  0.86311598  0.98043442    -0.08400
C871        C  0.52514922  0.86682245  0.96338630     0.62000
H872        H  0.94697496  0.87785432  0.91933378     0.12700
H873        H  0.92609543  0.81361318  0.06394651     0.12700
C874        C  0.85455673  0.80588341  0.01333139     0.62200
F875        F  0.52912655  0.86021104  0.91928195    -0.23000
F876        F  0.53470309  0.91029051  0.97276394    -0.20300
F877        F  0.55408375  0.83985634  0.98377528    -0.20000
F878        F  0.84419494  0.77239078  0.98448117    -0.20000
F879        F  0.82357238  0.83783275  0.01191282    -0.20300
F880        F  0.85517717  0.78854042  0.05444059    -0.23000
C881        C  0.64398409  0.92298115  0.99938130    -0.05900
C882        C  0.65700701  0.91665261  0.04223361     0.00100
C883        C  0.70067387  0.91504396  0.05254548    -0.08500
C884        C  0.73006823  0.91617512  0.01857393    -0.05900
C885        C  0.71677920  0.91896080  0.97516140     0.00100
C886        C  0.67318080  0.92423681  0.96538837    -0.08400
C887        C  0.65725122  0.92820316  0.91920237     0.62000
H888        H  0.61043193  0.92453148  0.99255561     0.12700
H889        H  0.76355989  0.91234585  0.02543595     0.12700
C890        C  0.71575844  0.90965446  0.09881343     0.62200
F891        F  0.67039849  0.89244433  0.89488903    -0.23000
F892        F  0.67311115  0.96641864  0.90159918    -0.20300
F893        F  0.61339222  0.92969181  0.91682545    -0.20000
F894        F  0.70060987  0.87041839  0.11492202    -0.20000
F895        F  0.70086003  0.94407507  0.12388708    -0.20300
F896        F  0.75962133  0.90950789  0.10201479    -0.23000
C897        C  0.81415981  0.82505838  0.25446326    -0.05900
C898        C  0.77457558  0.83706456  0.27134353     0.00100
C899        C  0.76884551  0.88010296  0.28838120    -0.08500
C900        C  0.80261426  0.91047486  0.28570761    -0.05900
C901        C  0.84125581  0.89875402  0.26691487     0.00100
C902        C  0.84780917  0.85533727  0.25207985    -0.08400
C903        C  0.88983508  0.84173919  0.23255934     0.62000
H904        H  0.81810670  0.79196178  0.24169925     0.12700
H905        H  0.79869794  0.94410283  0.29698278     0.12700
C906        C  0.72704680  0.89429522  0.30791284     0.62200
F907        F  0.89230363  0.79662637  0.22688483    -0.23000
F908        F  0.92304072  0.85485181  0.25938829    -0.20300
F909        F  0.89445512  0.86130993  0.19280327    -0.20000
F910        F  0.71948638  0.87018700  0.34463188    -0.20000
F911        F  0.69426452  0.88743440  0.27853041    -0.20300
F912        F  0.72737759  0.93841443  0.31947214    -0.23000
C913        C  0.79156270  0.64721252  0.20492244    -0.05900
C914        C  0.76182386  0.64538617  0.23830338     0.00100
C915        C  0.76381259  0.61073280  0.26837243    -0.08500
C916        C  0.79733642  0.58062077  0.26546784    -0.05900
C917        C  0.82893621  0.58390717  0.23383669     0.00100
C918        C  0.82536098  0.61704208  0.20208688    -0.08400
C919        C  0.85746162  0.62164583  0.16620924     0.62000
H920        H  0.78900469  0.67364247  0.18199652     0.12700
H921        H  0.79960659  0.55458820  0.28885214     0.12700
C922        C  0.73039784  0.60495068  0.30304984     0.62200
F923        F  0.89776950  0.62694283  0.18362421    -0.23000
F924        F  0.84918601  0.65765310  0.14059220    -0.20300
F925        F  0.85618273  0.58447880  0.14005859    -0.20000
F926        F  0.69032848  0.60528544  0.28440703    -0.20000
F927        F  0.73364131  0.63850499  0.33340698    -0.20300
F928        F  0.73498222  0.56555252  0.32449377    -0.23000
loop_ 
_geom_bond_atom_site_label_1 
_geom_bond_atom_site_label_2 
_geom_bond_distance 
_geom_bond_site_symmetry_2 
_ccdc_geom_bond_type 
In1           O3   2.235       .  S
In1           O4   2.285       .  S
In1          O12   2.212       .  S
In1           O6   2.253       .  S
In1           O8   2.265       .  S
In1           O9   2.265       .  S
In1          O10   2.238       .  S
In1          O13   2.219       .  S
C2            O8   1.265       .  A
C2           O10   1.260       .  A
C2           C54   1.469       .  S
O3           C11   1.257       .  A
O4           C11   1.266       .  A
C5           O12   1.262       .  A
C5            O6   1.267       .  A
C5          C202   1.478       .  S
C7            O9   1.269       .  A
C7           O13   1.261       .  A
C7          C218   1.480       .  S
C11          C46   1.475       .  S
In14         O16   2.238   1_565  S
In14         O17   2.274   1_565  S
In14         O25   2.219   1_565  S
In14         O19   2.275   1_565  S
In14        O253   2.268       .  S
In14        O254   2.264       .  S
In14        O255   2.245       .  S
In14        O258   2.220       .  S
C15          O21   1.264       .  A
C15          O23   1.259       .  A
C15         C505   1.470       .  S
O16          C24   1.258       .  A
O17          C24   1.264       .  A
C18          O25   1.260       .  A
C18          O19   1.267       .  A
C18         C221   1.489       .  S
C20          O22   1.267       .  A
C20          O26   1.262       .  A
C20         C205   1.473       .  S
O21        In246   2.272       .  S
O22        In246   2.259       .  S
O23        In246   2.240       .  S
C24         C523   1.470       .  S
O26        In246   2.223       .  S
In27         O29   2.220       .  S
In27         O30   2.267       .  S
In27         O38   2.224       .  S
In27         O32   2.282       .  S
In27         O34   2.254       .  S
In27         O35   2.278       .  S
In27         O36   2.238       .  S
In27         O39   2.242       .  S
C28          O34   1.264       .  A
C28          O36   1.263       .  A
C28          C93   1.467       .  S
O29          C37   1.258       .  A
O30          C37   1.263       .  A
C31          O38   1.253       .  A
C31          O32   1.261       .  A
C31         C189   1.480       .  S
C33          O35   1.261       .  A
C33          O39   1.258       .  A
C33          C89   1.470       .  S
C37         C170   1.473       .  S
In40         O42   2.228       .  S
In40         O51   2.216       .  S
In40         O45   2.274       .  S
In40         O47   2.277       .  S
In40         O48   2.280       .  S
In40         O49   2.247       .  S
In40         O52   2.241       .  S
In40        O507   2.266       .  S
C41          O47   1.262       .  A
C41          O49   1.260       .  A
C41         C479   1.473   1_455  S
O42         C514   1.258       .  A
O43        In504   2.261       .  S
O43          C50   1.266       .  A
C44          O51   1.258       .  A
C44          O45   1.265       .  A
C44         C186   1.473       .  S
C46          O48   1.263       .  A
C46          O52   1.261       .  A
C50         O506   1.258       .  A
C50         C173   1.477       .  S
In53         O55   2.206       .  S
In53         O56   2.282       .  S
In53         O64   2.215       .  S
In53         O60   2.261       .  S
In53         O61   2.247       .  S
In53         O62   2.244       .  S
In53         O65   2.229       .  S
In53        O522   2.266       .  S
C54          O60   1.262       .  A
C54          O62   1.262       .  A
O55          C63   1.255       .  A
O56          C63   1.265       .  A
C57          O58   1.263       .  A
C57         O528   1.257       .  A
C57         C157   1.466       .  S
O58        In517   2.264       .  S
C59          O61   1.263       .  A
C59          O65   1.262       .  A
C59         C488   1.461   1_455  S
C63         C141   1.484       .  S
O64         C521   1.257   1_455  A
In66         O68   2.223       .  S
In66         O69   2.286       .  S
In66         O77   2.232       .  S
In66         O71   2.271       .  S
In66         O73   2.285       .  S
In66         O74   2.269       .  S
In66         O75   2.256       .  S
In66         O78   2.248       .  S
C67          O73   1.262       .  A
C67          O75   1.261       .  A
C67         C102   1.480       .  S
O68          C76   1.256       .  A
O69          C76   1.263       .  A
C70          O77   1.258       .  A
C70          O71   1.264       .  A
C70         C138   1.479       .  S
C72          O74   1.264       .  A
C72          O78   1.263       .  A
C72          C80   1.475       .  S
C76         C154   1.486       .  S
In79         O81   2.228       .  S
In79         O82   2.268       .  S
In79         O90   2.228       .  S
In79         O84   2.270       .  S
In79         O86   2.276       .  S
In79         O87   2.256       .  S
In79         O88   2.244       .  S
In79         O91   2.200       .  S
C80          O86   1.266       .  A
C80          O88   1.259       .  A
O81          C89   1.260       .  A
O82          C89   1.266       .  A
C83          O90   1.261       .  A
C83          O84   1.268       .  A
C83         C122   1.486       .  S
C85          O87   1.268       .  A
C85          O91   1.262       .  A
C85         C106   1.479       .  S
In92         O94   2.245       .  S
In92         O95   2.289       .  S
In92        O103   2.206       .  S
In92         O97   2.259       .  S
In92        O331   2.268   1_545  S
In92        O332   2.272   1_545  S
In92        O333   2.229   1_545  S
In92        O336   2.230   1_545  S
C93          O99   1.263       .  A
C93         O101   1.259       .  A
O94         C102   1.258       .  A
O95         C102   1.266       .  A
C96         O103   1.262       .  A
C96          O97   1.267       .  A
C96         C573   1.473       .  S
C98         O100   1.267       .  A
C98         O104   1.261       .  A
C98         C589   1.483       .  S
O99        In324   2.263       .  S
O100       In324   2.273       .  S
O101       In324   2.241       .  S
O104       In324   2.209       .  S
C105        C106   1.403       .  A
C105        C110   1.400       .  A
C105        H112   1.081       .  S
C106        C107   1.417       .  A
C107        C108   1.413       .  A
C107        C114   1.518       .  S
C108        C109   1.406       .  A
C108        H113   1.079       .  S
C109        C560   1.475   1_455  S
C109        C110   1.415       .  A
C110        C575   1.521   1_455  S
C111        C574   1.521       .  S
C111        F115   1.384       .  S
C111        F116   1.383       .  S
C111        F117   1.382       .  S
C114        F118   1.382       .  S
C114        F119   1.384       .  S
C114        F120   1.384       .  S
C121        C122   1.406       .  A
C121        C126   1.416       .  A
C121        H128   1.084       .  S
C122        C123   1.416       .  A
C123        C124   1.403       .  A
C123        C130   1.518       .  S
C124        C125   1.405       .  A
C124        H129   1.084       .  S
C125        C562   1.492   1_455  S
C125        C126   1.421       .  A
C126        C591   1.517   1_455  S
C127        C590   1.517       .  S
C127        F131   1.385       .  S
C127        F132   1.383       .  S
C127        F133   1.383       .  S
C130        F134   1.383       .  S
C130        F135   1.382       .  S
C130        F136   1.385       .  S
C137        C138   1.400       .  A
C137        C142   1.405       .  A
C137        H144   1.083       .  S
C138        C139   1.417       .  A
C139        C140   1.412       .  A
C139        C146   1.516       .  S
C140        C141   1.405       .  A
C140        H145   1.082       .  S
C141        C142   1.421       .  A
C142        C143   1.522       .  S
C143        F147   1.384       .  S
C143        F148   1.385       .  S
C143        F149   1.382       .  S
C146        F150   1.383       .  S
C146        F151   1.382       .  S
C146        F152   1.384       .  S
C153        C154   1.408       .  A
C153        C158   1.403       .  A
C153        H160   1.085       .  S
C154        C155   1.421       .  A
C155        C156   1.410       .  A
C155        C162   1.517       .  S
C156        C157   1.401       .  A
C156        H625   1.081       .  S
C157        C158   1.408       .  A
C158        C159   1.519       .  S
C159        F163   1.384       .  S
C159        F164   1.383       .  S
C159        F165   1.384       .  S
H161        C620   1.085       .  S
C162        F166   1.383       .  S
C162        F167   1.383       .  S
C162        F632   1.385       .  S
F168        C626   1.385       .  S
C169        C170   1.398       .  A
C169        C174   1.401       .  A
C169        H176   1.084       .  S
C170        C171   1.417   1_556  A
C171        C172   1.409       .  A
C171        C178   1.515       .  S
C172        C173   1.402       .  A
C172        H177   1.083       .  S
C173        C174   1.419   1_554  A
C174        C639   1.517       .  S
C175        C638   1.517   1_455  S
C175        F179   1.386       .  S
C175        F180   1.382       .  S
C175        F181   1.383       .  S
C178        F182   1.383   1_554  S
C178        F183   1.382       .  S
C178        F184   1.385       .  S
C185        C186   1.403   1_556  A
C185        C190   1.406       .  A
C185        H192   1.081       .  S
C186        C187   1.411       .  A
C187        C188   1.407       .  A
C187        C194   1.517       .  S
C188        C189   1.407   1_554  A
C188        H193   1.082       .  S
C189        C190   1.416       .  A
C190        C191   1.517       .  S
C191        F195   1.382       .  S
C191        F196   1.383       .  S
C191        F197   1.385       .  S
C194        F198   1.383       .  S
C194        F199   1.383       .  S
C194        F200   1.385       .  S
C201        C202   1.403       .  A
C201        C206   1.402       .  A
C201        H208   1.085       .  S
C202        C203   1.418       .  A
C203        C204   1.412       .  A
C203        C210   1.518       .  S
C204        C205   1.404       .  A
C204        H209   1.084       .  S
C205        C206   1.412       .  A
C206        C207   1.517       .  S
C207        F211   1.385       .  S
C207        F212   1.383       .  S
C207        F213   1.382       .  S
C210        F214   1.383       .  S
C210        F215   1.384       .  S
C210        F216   1.384       .  S
C217        C218   1.404       .  A
C217        C222   1.414       .  A
C217        H224   1.081       .  S
C218        C219   1.415       .  A
C219        C220   1.404       .  A
C219        C226   1.521       .  S
C220        C221   1.406       .  A
C220        H225   1.081       .  S
C221        C222   1.420       .  A
C222        C223   1.518       .  S
C223        F227   1.384       .  S
C223        F228   1.385       .  S
C223        F229   1.383       .  S
C226        F230   1.383       .  S
C226        F231   1.383       .  S
C226        F232   1.385       .  S
In233       O235   2.248       .  S
In233       O236   2.289       .  S
In233       O244   2.213       .  S
In233       O238   2.258       .  S
In233       O240   2.271       .  S
In233       O241   2.264       .  S
In233       O242   2.239       .  S
In233       O245   2.229       .  S
C234        O240   1.264       .  A
C234        O242   1.258       .  A
C234        C286   1.469       .  S
O235        C243   1.258       .  A
O236        C243   1.265       .  A
C237        O244   1.262       .  A
C237        O238   1.266       .  A
C237        C434   1.480       .  S
C239        O241   1.268       .  A
C239        O245   1.261       .  A
C239        C450   1.478       .  S
C243        C278   1.480       .  S
In246       O248   2.239       .  S
In246       O249   2.275       .  S
In246       O257   2.214       .  S
In246       O251   2.263       .  S
C247        O253   1.265       .  A
C247        O255   1.261       .  A
C247        C737   1.474       .  S
O248        C256   1.258       .  A
O249        C256   1.264       .  A
C250        O257   1.261       .  A
C250        O251   1.268       .  A
C250        C453   1.482       .  S
C252        O254   1.266       .  A
C252        O258   1.261       .  A
C252        C437   1.476       .  S
C256        C755   1.471       .  S
In259       O261   2.218       .  S
In259       O262   2.266       .  S
In259       O270   2.218       .  S
In259       O264   2.276       .  S
In259       O266   2.265       .  S
In259       O267   2.267       .  S
In259       O268   2.229       .  S
In259       O271   2.240       .  S
C260        O266   1.264       .  A
C260        O268   1.260       .  A
C260        C325   1.466       .  S
O261        C269   1.258       .  A
O262        C269   1.265       .  A
C263        O270   1.256       .  A
C263        O264   1.265       .  A
C263        C421   1.476       .  S
C265        O267   1.262       .  A
C265        O271   1.260       .  A
C265        C321   1.468       .  S
C269        C402   1.472       .  S
In272       O274   2.208       .  S
In272       O739   2.281       .  S
In272       O283   2.228       .  S
In272       O277   2.275       .  S
In272       O279   2.270       .  S
In272       O280   2.285       .  S
In272       O281   2.252       .  S
In272       O284   2.252       .  S
C273        O279   1.262       .  A
C273        O281   1.261       .  A
C273        C711   1.472   1_455  S
O274        C746   1.256       .  A
O275       In736   2.280       .  S
O275        C282   1.266       .  A
C276        O283   1.258       .  A
C276        O277   1.266       .  A
C276        C418   1.481       .  S
C278        O280   1.263       .  A
C278        O284   1.261       .  A
C282        O738   1.257       .  A
C282        C405   1.485       .  S
In285       O287   2.213       .  S
In285       O288   2.273       .  S
In285       O296   2.212       .  S
In285       O754   2.251       .  S
In285       O292   2.262       .  S
In285       O293   2.262       .  S
In285       O294   2.244       .  S
In285       O297   2.236       .  S
C286        O292   1.261       .  A
C286        O294   1.262       .  A
O287        C295   1.255       .  A
O288        C295   1.266       .  A
C289        O760   1.256       .  A
C289        O290   1.263       .  A
C289        C389   1.465       .  S
O290       In749   2.268       .  S
C291        O293   1.265       .  A
C291        O297   1.262       .  A
C291        C720   1.470   1_455  S
C295        C373   1.484       .  S
O296        C753   1.258   1_455  A
In298       O300   2.226       .  S
In298       O301   2.268       .  S
In298       O309   2.210       .  S
In298       O303   2.263       .  S
In298       O305   2.272       .  S
In298       O306   2.256       .  S
In298       O307   2.243       .  S
In298       O310   2.250       .  S
C299        O305   1.262       .  A
C299        O307   1.261       .  A
C299        C334   1.471       .  S
O300        C308   1.256       .  A
O301        C308   1.263       .  A
C302        O309   1.258       .  A
C302        O303   1.264       .  A
C302        C370   1.472       .  S
C304        O306   1.263       .  A
C304        O310   1.263       .  A
C304        C312   1.471       .  S
C308        C386   1.482       .  S
In311       O313   2.227       .  S
In311       O314   2.263       .  S
In311       O322   2.226       .  S
In311       O316   2.266       .  S
In311       O318   2.259       .  S
In311       O319   2.269       .  S
In311       O320   2.247       .  S
In311       O323   2.205       .  S
C312        O318   1.265       .  A
C312        O320   1.260       .  A
O313        C321   1.260       .  A
O314        C321   1.266       .  A
C315        O322   1.262       .  A
C315        O316   1.267       .  A
C315        C354   1.478       .  S
C317        O319   1.268       .  A
C317        O323   1.261       .  A
C317        C338   1.480       .  S
In324       O326   2.232       .  S
In324       O327   2.277       .  S
In324       O335   2.216       .  S
In324       O329   2.263       .  S
C325        O331   1.263       .  A
C325        O333   1.258       .  A
O326        C334   1.258       .  A
O327        C334   1.266       .  A
C328        O335   1.261       .  A
C328        O329   1.267       .  A
C328        C805   1.474       .  S
C330        O332   1.268       .  A
C330        O336   1.261       .  A
C330        C821   1.489       .  S
C337        C338   1.403       .  A
C337        C342   1.401       .  A
C337        H344   1.080       .  S
C338        C339   1.417       .  A
C339        C340   1.413       .  A
C339        C346   1.517       .  S
C340        C341   1.406       .  A
C340        H345   1.079       .  S
C341        C792   1.476   1_455  S
C341        C342   1.415       .  A
C342        C807   1.520   1_455  S
C343        C806   1.520       .  S
C343        F347   1.385       .  S
C343        F348   1.383       .  S
C343        F349   1.382       .  S
C346        F350   1.382       .  S
C346        F351   1.384       .  S
C346        F352   1.385       .  S
C353        C354   1.404       .  A
C353        C358   1.412       .  A
C353        H360   1.086       .  S
C354        C355   1.415       .  A
C355        C356   1.405       .  A
C355        C362   1.519       .  S
C356        C357   1.404       .  A
C356        H361   1.085       .  S
C357        C794   1.481   1_455  S
C357        C358   1.417       .  A
C358        C823   1.517   1_455  S
C359        C822   1.517       .  S
C359        F363   1.385       .  S
C359        F364   1.383       .  S
C359        F365   1.384       .  S
C362        F366   1.383       .  S
C362        F367   1.381       .  S
C362        F368   1.385       .  S
C369        C370   1.399       .  A
C369        C374   1.402       .  A
C369        H376   1.083       .  S
C370        C371   1.414       .  A
C371        C372   1.409       .  A
C371        C378   1.516       .  S
C372        C373   1.405       .  A
C372        H377   1.081       .  S
C373        C374   1.423       .  A
C374        C375   1.521       .  S
C375        F379   1.385       .  S
C375        F380   1.383       .  S
C375        F381   1.383       .  S
C378        F382   1.382       .  S
C378        F383   1.383       .  S
C378        F384   1.385       .  S
C385        C386   1.409       .  A
C385        C390   1.405       .  A
C385        H392   1.080       .  S
C386        C387   1.419       .  A
C387        C388   1.407       .  A
C387        C394   1.519       .  S
C388        C389   1.401       .  A
C388        H857   1.083       .  S
C389        C390   1.408       .  A
C390        C391   1.519       .  S
C391        F395   1.384       .  S
C391        F396   1.384       .  S
C391        F397   1.383       .  S
H393        C852   1.084       .  S
C394        F398   1.383       .  S
C394        F399   1.383       .  S
C394        F864   1.385       .  S
F400        C858   1.385       .  S
C401        C402   1.397       .  A
C401        C406   1.408       .  A
C401        H408   1.084       .  S
C402        C403   1.414   1_556  A
C403        C404   1.408       .  A
C403        C410   1.516       .  S
C404        C405   1.403       .  A
C404        H409   1.083       .  S
C405        C406   1.423   1_554  A
C406        C871   1.516       .  S
C407        C870   1.515   1_455  S
C407        F411   1.385       .  S
C407        F412   1.383       .  S
C407        F413   1.383       .  S
C410        F414   1.384   1_554  S
C410        F415   1.382       .  S
C410        F416   1.384       .  S
C417        C418   1.406   1_556  A
C417        C422   1.407       .  A
C417        H424   1.076       .  S
C418        C419   1.412       .  A
C419        C420   1.408       .  A
C419        C426   1.516       .  S
C420        C421   1.405   1_554  A
C420        H425   1.083       .  S
C421        C422   1.413       .  A
C422        C423   1.520       .  S
C423        F427   1.384       .  S
C423        F428   1.383       .  S
C423        F429   1.384       .  S
C426        F430   1.384       .  S
C426        F431   1.383       .  S
C426        F432   1.384       .  S
C433        C434   1.403       .  A
C433        C438   1.402       .  A
C433        H440   1.085       .  S
C434        C435   1.418       .  A
C435        C436   1.412       .  A
C435        C442   1.518       .  S
C436        C437   1.405       .  A
C436        H441   1.084       .  S
C437        C438   1.414       .  A
C438        C439   1.519       .  S
C439        F443   1.385       .  S
C439        F444   1.384       .  S
C439        F445   1.382       .  S
C442        F446   1.383       .  S
C442        F447   1.384       .  S
C442        F448   1.384       .  S
C449        C450   1.404       .  A
C449        C454   1.413       .  A
C449        H456   1.082       .  S
C450        C451   1.414       .  A
C451        C452   1.404       .  A
C451        C458   1.519       .  S
C452        C453   1.404       .  A
C452        H457   1.082       .  S
C453        C454   1.418       .  A
C454        C455   1.518       .  S
C455        F459   1.384       .  S
C455        F460   1.384       .  S
C455        F461   1.383       .  S
C458        F462   1.383       .  S
C458        F463   1.383       .  S
C458        F464   1.385       .  S
In465       O467   2.232       .  S
In465       O468   2.273       .  S
In465       O476   2.223       .  S
In465       O470   2.261       .  S
In465       O472   2.273       .  S
In465       O473   2.258       .  S
In465       O474   2.241       .  S
In465       O477   2.205       .  S
C466        O472   1.265       .  A
C466        O474   1.259       .  A
C466        C518   1.472       .  S
O467        C475   1.258       .  A
O468        C475   1.264       .  A
C469        O476   1.261       .  A
C469        O470   1.267       .  A
C469        C666   1.482       .  S
C471        O473   1.268       .  A
C471        O477   1.261       .  A
C471        C682   1.478       .  S
C475        C510   1.470       .  S
In478       O480   2.229   1_565  S
In478       O481   2.251   1_565  S
In478       O489   2.215   1_565  S
In478       O483   2.261   1_565  S
In478       O717   2.267       .  S
In478       O718   2.241       .  S
In478       O719   2.238       .  S
In478       O722   2.213       .  S
C479        O485   1.266       .  A
C479        O487   1.259       .  A
O480        C488   1.259       .  A
O481        C488   1.264       .  A
C482        O489   1.262       .  A
C482        O483   1.268       .  A
C482        C685   1.491       .  S
C484        O486   1.267       .  A
C484        O490   1.261       .  A
C484        C669   1.473       .  S
O485       In710   2.275       .  S
O486       In710   2.259       .  S
O487       In710   2.238       .  S
O490       In710   2.215       .  S
In491       O493   2.221       .  S
In491       O494   2.263       .  S
In491       O502   2.225       .  S
In491       O496   2.272       .  S
In491       O498   2.259       .  S
In491       O499   2.260       .  S
In491       O500   2.235       .  S
In491       O503   2.228       .  S
C492        O498   1.263       .  A
C492        O500   1.262       .  A
C492        C557   1.466       .  S
O493        C501   1.258       .  A
O494        C501   1.263       .  A
C495        O502   1.256       .  A
C495        O496   1.262       .  A
C495        C653   1.477       .  S
C497        O499   1.262       .  A
C497        O503   1.261       .  A
C497        C553   1.463       .  S
C501        C634   1.469       .  S
In504       O506   2.219       .  S
In504       O515   2.209       .  S
In504       O509   2.269       .  S
In504       O511   2.267       .  S
In504       O512   2.274       .  S
In504       O513   2.241       .  S
In504       O516   2.236       .  S
C505        O511   1.263       .  A
C505        O513   1.261       .  A
O507        C514   1.266       .  A
C508        O515   1.257       .  A
C508        O509   1.265       .  A
C508        C650   1.468       .  S
C510        O512   1.263       .  A
C510        O516   1.260       .  A
C514        C637   1.480   1_455  S
In517       O519   2.201       .  S
In517       O520   2.284       .  S
In517       O528   2.216       .  S
In517       O524   2.263       .  S
In517       O525   2.265       .  S
In517       O526   2.251       .  S
In517       O529   2.239       .  S
C518        O524   1.260       .  A
C518        O526   1.262       .  A
O519        C527   1.254       .  A
O520        C527   1.265       .  A
C521        O522   1.264   1_655  A
C521        C621   1.468       .  S
C523        O525   1.263       .  A
C523        O529   1.262       .  A
C527        C605   1.485       .  S
In530       O532   2.224       .  S
In530       O533   2.278       .  S
In530       O541   2.213       .  S
In530       O535   2.274       .  S
In530       O537   2.272       .  S
In530       O538   2.269       .  S
In530       O539   2.242       .  S
In530       O542   2.247       .  S
C531        O537   1.262       .  A
C531        O539   1.261       .  A
C531        C566   1.471       .  S
O532        C540   1.257       .  A
O533        C540   1.264       .  A
C534        O541   1.258       .  A
C534        O535   1.265       .  A
C534        C602   1.473       .  S
C536        O538   1.264       .  A
C536        O542   1.263       .  A
C536        C544   1.475       .  S
C540        C618   1.488       .  S
In543       O545   2.222       .  S
In543       O546   2.263       .  S
In543       O554   2.226       .  S
In543       O548   2.267       .  S
In543       O550   2.273       .  S
In543       O551   2.261       .  S
In543       O552   2.246       .  S
In543       O555   2.209       .  S
C544        O550   1.265       .  A
C544        O552   1.259       .  A
O545        C553   1.259       .  A
O546        C553   1.265       .  A
C547        O554   1.262       .  A
C547        O548   1.269       .  A
C547        C586   1.481       .  S
C549        O551   1.267       .  A
C549        O555   1.261       .  A
C549        C570   1.481       .  S
In556       O558   2.235   1_565  S
In556       O559   2.273   1_565  S
In556       O567   2.206   1_565  S
In556       O561   2.268   1_565  S
In556       O795   2.270       .  S
In556       O796   2.253       .  S
In556       O797   2.247       .  S
In556       O800   2.226       .  S
C557        O563   1.265       .  A
C557        O565   1.260       .  A
O558        C566   1.259       .  A
O559        C566   1.265       .  A
C560        O567   1.260       .  A
C560        O561   1.268       .  A
C562        O564   1.268       .  A
C562        O568   1.261       .  A
O563       In788   2.262       .  S
O564       In788   2.270       .  S
O565       In788   2.232       .  S
O568       In788   2.213       .  S
C569        C570   1.404       .  A
C569        C574   1.402       .  A
C569        H576   1.080       .  S
C570        C571   1.417       .  A
C571        C572   1.413       .  A
C571        C578   1.517       .  S
C572        C573   1.404       .  A
C572        H577   1.078       .  S
C573        C574   1.414       .  A
C575        F579   1.385       .  S
C575        F580   1.383       .  S
C575        F581   1.382       .  S
C578        F582   1.382       .  S
C578        F583   1.384       .  S
C578        F584   1.384       .  S
C585        C586   1.406       .  A
C585        C590   1.415       .  A
C585        H592   1.086       .  S
C586        C587   1.415       .  A
C587        C588   1.402       .  A
C587        C594   1.519       .  S
C588        C589   1.403       .  A
C588        H593   1.085       .  S
C589        C590   1.418       .  A
C591        F595   1.384       .  S
C591        F596   1.383       .  S
C591        F597   1.384       .  S
C594        F598   1.383       .  S
C594        F599   1.380       .  S
C594        F600   1.386       .  S
C601        C602   1.398       .  A
C601        C606   1.403       .  A
C601        H608   1.083       .  S
C602        C603   1.414       .  A
C603        C604   1.411       .  A
C603        C610   1.516       .  S
C604        C605   1.406       .  A
C604        H609   1.082       .  S
C605        C606   1.424       .  A
C606        C607   1.523       .  S
C607        F611   1.385       .  S
C607        F612   1.384       .  S
C607        F613   1.383       .  S
C610        F614   1.383       .  S
C610        F615   1.383       .  S
C610        F616   1.385       .  S
C617        C618   1.409       .  A
C617        C622   1.405       .  A
C617        H624   1.084       .  S
C618        C619   1.421       .  A
C619        C620   1.409       .  A
C619        C626   1.517       .  S
C620        C621   1.400       .  A
C621        C622   1.411       .  A
C622        C623   1.521       .  S
C623        F627   1.385       .  S
C623        F628   1.382       .  S
C623        F629   1.383       .  S
C626        F630   1.383       .  S
C626        F631   1.382       .  S
C633        C634   1.397       .  A
C633        C638   1.405       .  A
C633        H640   1.085       .  S
C634        C635   1.413   1_556  A
C635        C636   1.407       .  A
C635        C642   1.515       .  S
C636        C637   1.402       .  A
C636        H641   1.083       .  S
C637        C638   1.422   1_554  A
C639        F643   1.386       .  S
C639        F644   1.382       .  S
C639        F645   1.383       .  S
C642        F646   1.383   1_554  S
C642        F647   1.379       .  S
C642        F648   1.384       .  S
C649        C650   1.402   1_556  A
C649        C654   1.406       .  A
C649        H656   1.080       .  S
C650        C651   1.408       .  A
C651        C652   1.405       .  A
C651        C658   1.517       .  S
C652        C653   1.406   1_554  A
C652        H657   1.078       .  S
C653        C654   1.415       .  A
C654        C655   1.517       .  S
C655        F659   1.382       .  S
C655        F660   1.382       .  S
C655        F661   1.385       .  S
C658        F662   1.384       .  S
C658        F663   1.383       .  S
C658        F664   1.385       .  S
C665        C666   1.405       .  A
C665        C670   1.405       .  A
C665        H672   1.084       .  S
C666        C667   1.418       .  A
C667        C668   1.411       .  A
C667        C674   1.518       .  S
C668        C669   1.402       .  A
C668        H673   1.084       .  S
C669        C670   1.413       .  A
C670        C671   1.520       .  S
C671        F675   1.384       .  S
C671        F676   1.383       .  S
C671        F677   1.383       .  S
C674        F678   1.382       .  S
C674        F679   1.384       .  S
C674        F680   1.385       .  S
C681        C682   1.404       .  A
C681        C686   1.413       .  A
C681        H688   1.082       .  S
C682        C683   1.415       .  A
C683        C684   1.402       .  A
C683        C690   1.522       .  S
C684        C685   1.407       .  A
C684        H689   1.082       .  S
C685        C686   1.421       .  A
C686        C687   1.517       .  S
C687        F691   1.383       .  S
C687        F692   1.384       .  S
C687        F693   1.383       .  S
C690        F694   1.384       .  S
C690        F695   1.383       .  S
C690        F696   1.384       .  S
In697       O699   2.240       .  S
In697       O700   2.277       .  S
In697       O708   2.219       .  S
In697       O702   2.255       .  S
In697       O704   2.268       .  S
In697       O705   2.258       .  S
In697       O706   2.228       .  S
In697       O709   2.217       .  S
C698        O704   1.265       .  A
C698        O706   1.259       .  A
C698        C750   1.466       .  S
O699        C707   1.259       .  A
O700        C707   1.265       .  A
C701        O708   1.262       .  A
C701        O702   1.267       .  A
C701        C898   1.479       .  S
C703        O705   1.269       .  A
C703        O709   1.261       .  A
C703        C914   1.481       .  S
C707        C742   1.474       .  S
In710       O712   2.239       .  S
In710       O713   2.269       .  S
In710       O721   2.217       .  S
In710       O715   2.269       .  S
C711        O717   1.266       .  A
C711        O719   1.259       .  A
O712        C720   1.259       .  A
O713        C720   1.264       .  A
C714        O721   1.262       .  A
C714        O715   1.268       .  A
C714        C917   1.492       .  S
C716        O718   1.267       .  A
C716        O722   1.263       .  A
C716        C901   1.466       .  S
In723       O725   2.219       .  S
In723       O726   2.263       .  S
In723       O734   2.226       .  S
In723       O728   2.282       .  S
In723       O730   2.263       .  S
In723       O731   2.272       .  S
In723       O732   2.250       .  S
In723       O735   2.245       .  S
C724        O730   1.264       .  A
C724        O732   1.263       .  A
C724        C789   1.473       .  S
O725        C733   1.259       .  A
O726        C733   1.263       .  A
C727        O734   1.253       .  A
C727        O728   1.262       .  A
C727        C885   1.479       .  S
C729        O731   1.261       .  A
C729        O735   1.260       .  A
C729        C785   1.469       .  S
C733        C866   1.472       .  S
In736       O738   2.237       .  S
In736       O747   2.214       .  S
In736       O741   2.274       .  S
In736       O743   2.274       .  S
In736       O744   2.278       .  S
In736       O745   2.252       .  S
In736       O748   2.242       .  S
C737        O743   1.262       .  A
C737        O745   1.260       .  A
O739        C746   1.267       .  A
C740        O747   1.258       .  A
C740        O741   1.266       .  A
C740        C882   1.473       .  S
C742        O744   1.264       .  A
C742        O748   1.260       .  A
C746        C869   1.482   1_455  S
In749       O751   2.200       .  S
In749       O752   2.280       .  S
In749       O760   2.208       .  S
In749       O756   2.264       .  S
In749       O757   2.266       .  S
In749       O758   2.239       .  S
In749       O761   2.239       .  S
C750        O756   1.260       .  A
C750        O758   1.261       .  A
O751        C759   1.255       .  A
O752        C759   1.266       .  A
C753        O754   1.263   1_655  A
C753        C853   1.463       .  S
C755        O757   1.264       .  A
C755        O761   1.262       .  A
C759        C837   1.482       .  S
In762       O764   2.207       .  S
In762       O765   2.279       .  S
In762       O773   2.211       .  S
In762       O767   2.273       .  S
In762       O769   2.268       .  S
In762       O770   2.262       .  S
In762       O771   2.242       .  S
In762       O774   2.242       .  S
C763        O769   1.262       .  A
C763        O771   1.261       .  A
C763        C798   1.469       .  S
O764        C772   1.255       .  A
O765        C772   1.263       .  A
C766        O773   1.258       .  A
C766        O767   1.264       .  A
C766        C834   1.472       .  S
C768        O770   1.264       .  A
C768        O774   1.263       .  A
C768        C776   1.471       .  S
C772        C850   1.478       .  S
In775       O777   2.232       .  S
In775       O778   2.271       .  S
In775       O786   2.234       .  S
In775       O780   2.268       .  S
In775       O782   2.270       .  S
In775       O783   2.267       .  S
In775       O784   2.244       .  S
In775       O787   2.214       .  S
C776        O782   1.264       .  A
C776        O784   1.259       .  A
O777        C785   1.259       .  A
O778        C785   1.265       .  A
C779        O786   1.262       .  A
C779        O780   1.267       .  A
C779        C818   1.482       .  S
C781        O783   1.267       .  A
C781        O787   1.261       .  A
C781        C802   1.480       .  S
In788       O790   2.231       .  S
In788       O791   2.267       .  S
In788       O799   2.213       .  S
In788       O793   2.260       .  S
C789        O795   1.264       .  A
C789        O797   1.259       .  A
O790        C798   1.260       .  A
O791        C798   1.267       .  A
C792        O799   1.261       .  A
C792        O793   1.268       .  A
C794        O796   1.266       .  A
C794        O800   1.262       .  A
C801        C802   1.402       .  A
C801        C806   1.402       .  A
C801        H808   1.081       .  S
C802        C803   1.418       .  A
C803        C804   1.414       .  A
C803        C810   1.518       .  S
C804        C805   1.405       .  A
C804        H809   1.080       .  S
C805        C806   1.413       .  A
C807        F811   1.385       .  S
C807        F812   1.383       .  S
C807        F813   1.382       .  S
C810        F814   1.382       .  S
C810        F815   1.384       .  S
C810        F816   1.385       .  S
C817        C818   1.404       .  A
C817        C822   1.415       .  A
C817        H824   1.085       .  S
C818        C819   1.415       .  A
C819        C820   1.407       .  A
C819        C826   1.519       .  S
C820        C821   1.405       .  A
C820        H825   1.084       .  S
C821        C822   1.420       .  A
C823        F827   1.384       .  S
C823        F828   1.383       .  S
C823        F829   1.384       .  S
C826        F830   1.383       .  S
C826        F831   1.381       .  S
C826        F832   1.385       .  S
C833        C834   1.397       .  A
C833        C838   1.400       .  A
C833        H840   1.084       .  S
C834        C835   1.416       .  A
C835        C836   1.412       .  A
C835        C842   1.517       .  S
C836        C837   1.406       .  A
C836        H841   1.082       .  S
C837        C838   1.423       .  A
C838        C839   1.522       .  S
C839        F843   1.385       .  S
C839        F844   1.383       .  S
C839        F845   1.383       .  S
C842        F846   1.383       .  S
C842        F847   1.383       .  S
C842        F848   1.385       .  S
C849        C850   1.406       .  A
C849        C854   1.401       .  A
C849        H856   1.090       .  S
C850        C851   1.419       .  A
C851        C852   1.407       .  A
C851        C858   1.517       .  S
C852        C853   1.401       .  A
C853        C854   1.409       .  A
C854        C855   1.519       .  S
C855        F859   1.385       .  S
C855        F860   1.383       .  S
C855        F861   1.383       .  S
C858        F862   1.382       .  S
C858        F863   1.383       .  S
C865        C866   1.395       .  A
C865        C870   1.399       .  A
C865        H872   1.085       .  S
C866        C867   1.417   1_556  A
C867        C868   1.412       .  A
C867        C874   1.515       .  S
C868        C869   1.403       .  A
C868        H873   1.083       .  S
C869        C870   1.421   1_554  A
C871        F875   1.386       .  S
C871        F876   1.381       .  S
C871        F877   1.383       .  S
C874        F878   1.383   1_554  S
C874        F879   1.382       .  S
C874        F880   1.384       .  S
C881        C882   1.402   1_556  A
C881        C886   1.406       .  A
C881        H888   1.078       .  S
C882        C883   1.411       .  A
C883        C884   1.409       .  A
C883        C890   1.517       .  S
C884        C885   1.408   1_554  A
C884        H889   1.082       .  S
C885        C886   1.415       .  A
C886        C887   1.518       .  S
C887        F891   1.383       .  S
C887        F892   1.383       .  S
C887        F893   1.384       .  S
C890        F894   1.383       .  S
C890        F895   1.383       .  S
C890        F896   1.385       .  S
C897        C898   1.406       .  A
C897        C902   1.404       .  A
C897        H904   1.085       .  S
C898        C899   1.419       .  A
C899        C900   1.409       .  A
C899        C906   1.517       .  S
C900        C901   1.401       .  A
C900        H905   1.085       .  S
C901        C902   1.410       .  A
C902        C903   1.519       .  S
C903        F907   1.384       .  S
C903        F908   1.384       .  S
C903        F909   1.383       .  S
C906        F910   1.383       .  S
C906        F911   1.384       .  S
C906        F912   1.385       .  S
C913        C914   1.403       .  A
C913        C918   1.413       .  A
C913        H920   1.082       .  S
C914        C915   1.416       .  A
C915        C916   1.405       .  A
C915        C922   1.522       .  S
C916        C917   1.408       .  A
C916        H921   1.082       .  S
C917        C918   1.421       .  A
C918        C919   1.517       .  S
C919        F923   1.383       .  S
C919        F924   1.385       .  S
C919        F925   1.383       .  S
C922        F926   1.384       .  S
C922        F927   1.382       .  S
C922        F928   1.385       .  S
