geometry optimzed in LAMMPS
_audit_creation_date              2020-12-01 
_audit_creation_method            'lammps2cif' 
_symmetry_space_group_name_H-M    'P1' 
_symmetry_Int_Tables_number       1 
_symmetry_cell_setting            triclinic 
loop_ 
_symmetry_equiv_pos_as_xyz 
  x,y,z 
_cell_length_a                    55.65462268 
_cell_length_b                    55.46786776547776 
_cell_length_c                    46.976625982869734 
_cell_angle_alpha                 89.92635169684372 
_cell_angle_beta                  90.56183438583062 
_cell_angle_gamma                 121.1834710974176 
loop_ 
_atom_site_label 
_atom_site_type_symbol 
_atom_site_fract_x 
_atom_site_fract_y 
_atom_site_fract_z 
_atom_site_charge 
C1          C  0.34090528  0.15274281  0.97843863     0.03800
C2          C  0.31148057  0.13912293  0.97650926    -0.12400
C3          C  0.29801739  0.15452553  0.97357068     0.01300
C4          C  0.31409518  0.18412067  0.97302785    -0.10900
C5          C  0.34357195  0.19815025  0.97428636     0.03700
C6          C  0.35667578  0.18241614  0.97753899    -0.10300
H7          H  0.29880881  0.11633887  0.97597527     0.09300
H8          H  0.30386829  0.19600036  0.96931294     0.06900
H9          H  0.37934942  0.19364079  0.97871417     0.06700
C10         C  0.34492960  0.15067546  0.06812499     0.03800
C11         C  0.31541286  0.13460840  0.06937812    -0.12400
C12         C  0.29938560  0.14739202  0.07210557     0.01300
C13         C  0.31309404  0.17696863  0.07230491    -0.10900
C14         C  0.34258879  0.19373105  0.07091584     0.03700
C15         C  0.35820296  0.18031738  0.06855318    -0.10300
H16         H  0.30452304  0.11188223  0.06849296     0.09300
H17         H  0.30088523  0.18688162  0.07518959     0.06900
H18         H  0.38082928  0.19308957  0.06748310     0.06700
C19         C  0.16125466  0.33577229  0.28394813     0.03800
C20         C  0.18762662  0.35214191  0.29731613    -0.12400
C21         C  0.19329364  0.34466706  0.32391156     0.01300
C22         C  0.17173475  0.32174310  0.33846755    -0.10900
C23         C  0.14486930  0.30625331  0.32612193     0.03700
C24         C  0.13922079  0.31471348  0.30005240    -0.10300
H25         H  0.20507666  0.36870299  0.28582418     0.09300
H26         H  0.17658173  0.31404570  0.35759078     0.06900
H27         H  0.11859292  0.30173850  0.29047693     0.06700
C28         C  0.16024755  0.33380876  0.25214712     0.03800
C29         C  0.14558120  0.30693171  0.23946968    -0.12400
C30         C  0.15387835  0.30156764  0.21336581     0.01300
C31         C  0.17656346  0.32371073  0.19897812    -0.10900
C32         C  0.19089912  0.35093818  0.21095471     0.03700
C33         C  0.18083392  0.35622431  0.23600902    -0.10300
H34         H  0.12958738  0.28911091  0.25113106     0.09300
H35         H  0.18482771  0.31911968  0.18032601     0.06900
H36         H  0.19210560  0.37728468  0.24496799     0.06700
C37         C  0.04167495  0.46337160  0.36132450     0.43100
N38         N  0.00858493  0.47231974  0.36015996     0.02000
C39         C  0.03145546  0.09592483  0.39259650    -0.05900
H40         H  0.07577518  0.06871144  0.46816650     0.07500
C41         C  0.47387308  0.47887307  0.48992903    -0.06300
Co42       Co  0.03767194  0.02714322  0.36915176     0.74200
N43         N  0.05442418  0.04729307  0.42927466    -0.25400
Co44       Co  0.01561765  0.04458439  0.43029358     0.74100
C45         C  0.49824099  0.49843598  0.00693180     0.43200
N46         N  0.45339216  0.44148896  0.42748674     0.01600
N47         N  0.50093781  0.01662379  0.46504267     0.01100
N48         N  0.04657386  0.08512596  0.35269731    -0.46300
H49         H  0.07577833  0.51035451  0.36383019     0.07500
N50         N  0.06292970  0.04064032  0.40606115     0.02000
N51         N  0.47300473  0.04173607  0.43479798     0.01700
C52         C  0.44083768  0.05107658  0.44313519     0.43300
N53         N  0.46307357  0.43499387  0.40505544    -0.24900
C54         C  0.01874728  0.02330921  0.30526961    -0.05800
N55         N  0.01347938  0.45132486  0.35983618    -0.46000
N56         N  0.46872264  0.06262324  0.44009853    -0.46200
C57         C  0.49095338  0.00995252  0.28732154     0.43100
N58         N  0.03640357  0.06418511  0.37128865     0.02000
N59         N  0.43815846  0.45899501  0.36856996    -0.24900
N60         N  0.03193784  0.49728954  0.36160049    -0.25400
N61         N  0.42924228  0.46599091  0.39126714     0.01600
H62         H  0.41799125  0.43898352  0.32877163     0.07500
H63         H  0.40609821  0.00402604  0.44084648     0.07500
N64         N  0.02795553  0.07034594  0.39490153    -0.25500
N65         N  0.47795055  0.49194313  0.46492614    -0.25100
N66         N  0.49023173  0.48798366  0.33343118     0.02000
C67         C  0.09922048  0.05945969  0.43384119     0.43400
C68         C  0.45844032  0.40883399  0.40870609    -0.06300
N69         N  0.44955767  0.01687314  0.43401560    -0.25100
H70         H  0.45584505  0.45868442  0.49548777     0.07500
N71         N  0.08964417  0.04775505  0.40783163    -0.46300
H72         H  0.46239310  0.39703025  0.39307811     0.07500
C73         C  0.39427405  0.44875149  0.36236786     0.43200
C74         C  0.05395895  0.49375015  0.36221795    -0.05800
Co75       Co  0.47692203  0.46145218  0.36910536     0.73800
N76         N  0.44143399  0.42065865  0.44619605    -0.46000
C77         C  0.04372539  0.10566660  0.36468876     0.43500
N78         N  0.47901142  0.48089245  0.30746257    -0.46000
Co79       Co  0.45285321  0.47887506  0.42855333     0.73900
C80         C  0.42790629  0.02058498  0.43923044    -0.06300
C81         C  0.07588810  0.05930401  0.44805190    -0.05900
N82         N  0.01258784  0.01317931  0.33197549    -0.25400
N83         N  0.01493196  0.02183777  0.49001602    -0.46200
H84         H  0.02770040  0.10693665  0.40929943     0.07500
C85         C  0.41750973  0.44814910  0.34890969    -0.06300
Cl86       Cl  0.49240291  0.00633715  0.39827460    -0.49300
C87         C  0.44408631  0.39937078  0.43609445     0.43200
H88         H  0.03810213  0.04189208  0.29883309     0.07400
N89         N  0.40299487  0.45978922  0.38861753    -0.46000
C90         C  0.09776430  0.04484928  0.11151957     0.43100
N91         N  0.05614869  0.03665302  0.11876865     0.02000
C92         C  0.47306463  0.47778126  0.24074364    -0.05900
H93         H  0.49713462  0.41417409  0.17897608     0.07500
C94         C  0.44295071  0.41873545  0.09827918    -0.06300
Co95       Co  0.03663699  0.01522782  0.17767440     0.74200
N96         N  0.00751133  0.46099249  0.17839505    -0.25400
Co97       Co  0.47111979  0.45758354  0.17770800     0.74100
C98         C  0.44426681  0.39635320  0.11332362     0.43200
N99         N  0.48317052  0.49193168  0.08031163     0.01600
N100        N  0.45931520  0.43223631  0.14105688     0.01700
N101        N  0.01713796  0.01511629  0.23879509    -0.46300
H102        H  0.09972765  0.02794064  0.15572420     0.07500
N103        N  0.03220999  0.48460179  0.17920478     0.02000
N104        N  0.43379980  0.45851767  0.17319356     0.01700
C105        C  0.39188157  0.45075680  0.17684014     0.43300
N106        N  0.00594866  0.01247985  0.08032835    -0.24900
C107        C  0.05099192  0.07574525  0.19507287    -0.05800
N108        N  0.07694795  0.04768368  0.10023199    -0.46000
N109        N  0.41210435  0.44848452  0.19076635    -0.46200
C110        C  0.05093643  0.09892450  0.18029721     0.43100
N111        N  0.01039126  0.00300601  0.21323433     0.02000
N112        N  0.48075005  0.04360936  0.10862243    -0.24900
N113        N  0.06243869  0.02760995  0.14204026    -0.25400
N114        N  0.45660818  0.01935056  0.10789936     0.01600
H115        H  0.49151499  0.08668087  0.10241406     0.07500
H116        H  0.39241354  0.46619677  0.13133021     0.07500
N117        N  0.48398934  0.48332744  0.21440781    -0.25500
N118        N  0.45298995  0.44018791  0.11703183    -0.25100
N119        N  0.03262478  0.06272658  0.15296550     0.02000
C120        C  0.04187935  0.45193421  0.17776268     0.43400
C121        C  0.01754316  0.01799016  0.05451117    -0.06300
N122        N  0.42847016  0.46656169  0.14862988    -0.25100
H123        H  0.43475784  0.41848066  0.07723284     0.07500
N124        N  0.05342741  0.48014428  0.17898311    -0.46300
H125        H  0.03672115  0.03702094  0.04855157     0.07500
C126        C  0.44528652  0.05036821  0.10000610     0.43200
C127        C  0.08821208  0.03156587  0.13929202    -0.05800
Co128      Co  0.01939106  0.03803018  0.11635696     0.73800
N129        N  0.47752523  0.48075680  0.05442882    -0.46000
C130        C  0.49047544  0.00834059  0.25578805     0.43500
N131        N  0.03950142  0.08935446  0.15430355    -0.46000
Co132      Co  0.45527877  0.47891270  0.11426901     0.73900
C133        C  0.40273069  0.46262343  0.14903716    -0.06300
C134        C  0.01150565  0.43916134  0.17770855    -0.05900
N135        N  0.03950816  0.05430726  0.17633796    -0.25400
N136        N  0.45441016  0.40618421  0.13971300    -0.46200
H137        H  0.45425456  0.45858383  0.24710102     0.07500
C138        C  0.47574990  0.06451525  0.10376978    -0.06300
Cl139      Cl  0.49476852  0.00366889  0.14547190    -0.49300
C140        C  0.49964174  0.49820787  0.03807500     0.43200
H141        H  0.06036325  0.07579143  0.21537338     0.07400
N142        N  0.43488804  0.02245419  0.10283575    -0.46000
C143        C  0.11670796  0.22654942  0.18236151     0.16600
C144        C  0.10061378  0.20200754  0.16614237    -0.32500
C145        C  0.09023739  0.17605008  0.17993453     0.21000
C146        C  0.09611937  0.17447879  0.20840012     0.03200
C147        C  0.11239549  0.19898191  0.22453196    -0.22200
C148        C  0.12222679  0.22489490  0.21090571     0.12300
S149        S  0.12962694  0.26016713  0.17027763    -0.05900
C150        C  0.14172712  0.27194803  0.20430398    -0.09300
C151        C  0.13675660  0.25081986  0.22348974    -0.25900
S152        S  0.08164465  0.14095424  0.22113149    -0.03100
C153        C  0.06723207  0.12896428  0.18781959    -0.16600
C154        C  0.07351318  0.14995862  0.16806445    -0.14600
H155        H  0.09584424  0.20307691  0.14393735     0.20800
H156        H  0.11672669  0.19790231  0.24685927     0.16800
H157        H  0.14274061  0.25421227  0.24578948     0.19400
H158        H  0.06651945  0.14630745  0.14604410     0.12700
C159        C  0.26522746  0.39565428  0.18082881     0.16600
C160        C  0.28932242  0.40746419  0.16402338    -0.32500
C161        C  0.31539809  0.41880246  0.17802552     0.21000
C162        C  0.31759215  0.41859242  0.20742816     0.03200
C163        C  0.29355039  0.40760501  0.22427463    -0.22200
C164        C  0.26745966  0.39614756  0.21025574     0.12300
S165        S  0.23142393  0.37775263  0.16797517    -0.05900
C166        C  0.22018917  0.37115800  0.20268356    -0.09300
C167        C  0.24175831  0.38258718  0.22284719    -0.25900
S168        S  0.35114771  0.43164832  0.22003244    -0.03100
C169        C  0.36230046  0.43794858  0.18529053    -0.16600
C170        C  0.34095167  0.43012329  0.16529931    -0.14600
H171        H  0.28777501  0.40699410  0.14100794     0.20800
H172        H  0.29501348  0.40723853  0.24724417     0.16800
H173        H  0.23881504  0.37940810  0.24557839     0.19400
H174        H  0.34384466  0.43204515  0.14247442     0.12700
C175        C  0.11987713  0.41654232  0.21890942     0.16600
C176        C  0.11916213  0.43832295  0.20454280    -0.32500
C177        C  0.09383714  0.43173553  0.19118169     0.21000
C178        C  0.07146217  0.40414602  0.18922350     0.03200
C179        C  0.07334958  0.38198841  0.20100683    -0.22200
C180        C  0.09735300  0.38904571  0.21734223     0.12300
S181        S  0.14222550  0.42263618  0.24663453    -0.05900
C182        C  0.11849615  0.38926314  0.25909260    -0.09300
C183        C  0.09781736  0.37278490  0.23907106    -0.25900
S184        S  0.04051499  0.40099104  0.17882945    -0.03100
C185        C  0.05749055  0.43719169  0.17871674    -0.16600
C186        C  0.08604103  0.45081428  0.18444555    -0.14600
H187        H  0.13566972  0.46005573  0.20786092     0.20800
H188        H  0.05502663  0.36092806  0.20163172     0.16800
H189        H  0.08007474  0.35197625  0.24341374     0.19400
H190        H  0.09959988  0.47341165  0.18685959     0.12700
C191        C  0.08614284  0.17984367  0.33385087     0.16600
C192        C  0.10460060  0.20417745  0.31881700    -0.32500
C193        C  0.10924828  0.22989685  0.32928733     0.21000
C194        C  0.09628296  0.23157468  0.35364984     0.03200
C195        C  0.07762698  0.20717976  0.36855393    -0.22200
C196        C  0.07294239  0.18141857  0.35805414     0.12300
S197        S  0.07851591  0.14665675  0.32536289    -0.05900
C198        C  0.05738032  0.13486529  0.35480507    -0.09300
C199        C  0.05626079  0.15563181  0.37004618    -0.25900
S200        S  0.10564285  0.26512333  0.36328884    -0.03100
C201        C  0.12685832  0.27664876  0.33397464    -0.16600
C202        C  0.12672834  0.25572013  0.31787937    -0.14600
H203        H  0.11515422  0.20317637  0.30003324     0.20800
H204        H  0.06749167  0.20824006  0.38765733     0.16800
H205        H  0.04446870  0.15224847  0.38933342     0.19400
H206        H  0.13917592  0.25939971  0.29900663     0.12700
C207        C  0.26746760  0.38228647  0.35644706     0.16600
C208        C  0.29150038  0.39797025  0.37340360    -0.32500
C209        C  0.31763521  0.40924854  0.36021760     0.21000
C210        C  0.31990123  0.40458426  0.33163311     0.03200
C211        C  0.29588437  0.38865725  0.31475091    -0.22200
C212        C  0.26976941  0.37798821  0.32778513     0.12300
S213        S  0.23374162  0.36835719  0.36785816    -0.05900
C214        C  0.22278402  0.35763150  0.33337642    -0.09300
C215        C  0.24422227  0.36360133  0.31453955    -0.25900
S216        S  0.35360532  0.41986223  0.31982284    -0.03100
C217        C  0.36464191  0.43287888  0.35372153    -0.16600
C218        C  0.34327031  0.42566632  0.37293967    -0.14600
H219        H  0.28991723  0.40173516  0.39571554     0.20800
H220        H  0.29746743  0.38513827  0.29237743     0.16800
H221        H  0.24130501  0.35823674  0.29211334     0.19400
H222        H  0.34634377  0.43166173  0.39520865     0.12700
C223        C  0.09107410  0.43560353  0.35155161     0.16600
C224        C  0.11397920  0.43405403  0.34199541    -0.32500
C225        C  0.10822484  0.40948013  0.32758535     0.21000
C226        C  0.08111151  0.38650201  0.32522095     0.03200
C227        C  0.05840191  0.38719718  0.33692730    -0.22200
C228        C  0.06387717  0.41271778  0.34889312     0.12300
S229        S  0.09313676  0.46626233  0.36104683    -0.05900
C230        C  0.05700894  0.44839211  0.36020062    -0.09300
C231        C  0.04417284  0.41984878  0.35441351    -0.25900
S232        S  0.07722954  0.36249047  0.30029293    -0.03100
C233        C  0.11151959  0.38550040  0.28999634    -0.16600
C234        C  0.12611106  0.40798555  0.30882855    -0.14600
H235        H  0.13487503  0.45259909  0.34210393     0.20800
H236        H  0.03705414  0.37009788  0.33317545     0.16800
H237        H  0.02174976  0.40572800  0.35168314     0.19400
H238        H  0.14715080  0.42557429  0.30525232     0.12700
C239        C  0.39199946  0.07348532  0.08543198     0.16600
C240        C  0.36797486  0.07555554  0.08334872    -0.32500
C241        C  0.37162724  0.10177117  0.07592718     0.21000
C242        C  0.39791104  0.12474827  0.07017232     0.03200
C243        C  0.42198547  0.12265844  0.07204078    -0.22200
C244        C  0.41842953  0.09660523  0.08016483     0.12300
S245        S  0.39205816  0.04388252  0.09543105    -0.05900
C246        C  0.42814897  0.06293411  0.09314216    -0.09300
C247        C  0.43930721  0.09069416  0.08464876    -0.25900
S248        S  0.39782465  0.15489017  0.06278466    -0.03100
C249        C  0.36190351  0.13667448  0.06818198    -0.16600
C250        C  0.35103206  0.10834870  0.07477691    -0.14600
H251        H  0.34737183  0.05767174  0.08803239     0.20800
H252        H  0.44265830  0.14075331  0.06810500     0.16800
H253        H  0.46149242  0.10579423  0.08205677     0.19400
H254        H  0.32939328  0.09325158  0.07983312     0.12700
C255        C  0.37091295  0.27402941  0.07567788     0.16600
C256        C  0.37476629  0.30117060  0.07534182    -0.32500
C257        C  0.39978382  0.32340182  0.08723510     0.21000
C258        C  0.41994492  0.31872869  0.09906247     0.03200
C259        C  0.41633031  0.29174364  0.09884230    -0.22200
C260        C  0.39139574  0.26957878  0.08690230     0.12300
S261        S  0.34149044  0.24396172  0.06382447    -0.05900
C262        C  0.35704592  0.22506194  0.07367342    -0.09300
C263        C  0.38370996  0.24173762  0.08565953    -0.25900
S264        S  0.44775116  0.34785404  0.11450793    -0.03100
C265        C  0.43240350  0.36674247  0.10453933    -0.16600
C266        C  0.40705892  0.35110257  0.08992215    -0.14600
H267        H  0.35875126  0.30470671  0.06668113     0.20800
H268        H  0.43202445  0.28806564  0.10814122     0.16800
H269        H  0.39656083  0.23388777  0.09399558     0.19400
H270        H  0.39409426  0.35927918  0.08278488     0.12700
C271        C  0.22253231  0.09492456  0.09295908     0.16600
C272        C  0.19779089  0.07293350  0.10474999    -0.32500
C273        C  0.17283672  0.07277047  0.09977308     0.21000
C274        C  0.17241254  0.09333892  0.08333554     0.03200
C275        C  0.19726620  0.11552638  0.07173523    -0.22200
C276        C  0.22236230  0.11594522  0.07712525     0.12300
S277        S  0.25484410  0.09886316  0.09689489    -0.05900
C278        C  0.26869832  0.12953149  0.07734907    -0.09300
C279        C  0.24883996  0.13603609  0.06832893    -0.25900
S280        S  0.13990042  0.08928788  0.07985802    -0.03100
C281        C  0.12695453  0.06004752  0.10139354    -0.16600
C282        C  0.14686433  0.05372745  0.11033635    -0.14600
H283        H  0.19803798  0.05676437  0.11752529     0.20800
H284        H  0.19708847  0.13190651  0.05928842     0.16800
H285        H  0.25348116  0.15441931  0.05595270     0.19400
H286        H  0.14263842  0.03635777  0.12420603     0.12700
C287        C  0.36962272  0.09916508  0.48175988     0.16600
C288        C  0.37161724  0.07493751  0.47982565    -0.32500
C289        C  0.39620141  0.07794110  0.46811822     0.21000
C290        C  0.41806373  0.10407929  0.45960442     0.03200
C291        C  0.41621500  0.12824517  0.46194634    -0.22200
C292        C  0.39143042  0.12511764  0.47290798     0.12300
S293        S  0.34061163  0.09969078  0.49246199    -0.05900
C294        C  0.35784332  0.13527312  0.48448599    -0.09300
C295        C  0.38496965  0.14582288  0.47461986    -0.25900
S296        S  0.44595838  0.10360890  0.44563325    -0.03100
C297        C  0.42798488  0.06770340  0.45070047    -0.16600
C298        C  0.40172874  0.05682136  0.46291720    -0.14600
H299        H  0.35441168  0.05452817  0.48627147     0.20800
H300        H  0.43309219  0.14852224  0.45474750     0.16800
H301        H  0.39883110  0.16718345  0.46742156     0.19400
H302        H  0.38759212  0.03479719  0.46784130     0.12700
C303        C  0.39911175  0.27587951  0.46424905     0.16600
C304        C  0.42059616  0.30068862  0.45183830    -0.32500
C305        C  0.41917899  0.32515281  0.45406253     0.21000
C306        C  0.39780292  0.32519930  0.46891292     0.03200
C307        C  0.37614773  0.30024226  0.48129409    -0.22200
C308        C  0.37705610  0.27544849  0.47815049     0.12300
S309        S  0.39653917  0.24390996  0.46235111    -0.05900
C310        C  0.36475708  0.22909131  0.47963657    -0.09300
C311        C  0.35951962  0.24965534  0.98223993    -0.25900
S312        S  0.40008553  0.35725718  0.46901028    -0.03100
C313        C  0.42953213  0.37038718  0.44793291    -0.16600
C314        C  0.43722653  0.35084095  0.44181592    -0.14600
H315        H  0.43735041  0.30073353  0.44027821     0.20800
H316        H  0.37141178  0.30342588  0.99819225     0.16800
H317        H  0.34540909  0.24601953  0.99959081     0.19400
H318        H  0.45494225  0.35510936  0.42879661     0.12700
C319        C  0.22527521  0.10935704  0.44910817     0.16600
C320        C  0.20068894  0.09034521  0.43406581    -0.32500
C321        C  0.17556799  0.08874529  0.44167842     0.21000
C322        C  0.17491007  0.10519040  0.46350255     0.03200
C323        C  0.19965014  0.12463773  0.47820662    -0.22200
C324        C  0.22486996  0.12644564  0.47037783     0.12300
S325        S  0.25520318  0.11829630  0.93643842    -0.05900
C326        C  0.27098261  0.13914999  0.46995544    -0.09300
C327        C  0.25116725  0.14397620  0.48208879    -0.25900
S328        S  0.14208691  0.09931133  0.47007985    -0.03100
C329        C  0.12916258  0.07477613  0.44282127    -0.16600
C330        C  0.14947949  0.07149037  0.42955869    -0.14600
H331        H  0.19881878  0.08151608  0.91102836     0.20800
H332        H  0.19922733  0.13765540  0.49510089     0.16800
H333        H  0.25570227  0.15919999  0.49878995     0.19400
H334        H  0.14534794  0.05711708  0.41206165     0.12700
C335        C  0.34381906  0.15210557  0.48497130     0.03800
C336        C  0.31458957  0.13861947  0.48107613    -0.12400
C337        C  0.30118072  0.15411659  0.47830452     0.01300
C338        C  0.31731251  0.18375973  0.48018510    -0.10900
C339        C  0.34678670  0.19789576  0.48346698     0.03700
C340        C  0.35960689  0.18176112  0.48653399    -0.10300
H341        H  0.30217331  0.11590748  0.47896366     0.09300
H342        H  0.30718708  0.19575457  0.47674386     0.06900
H343        H  0.38214102  0.19248138  0.48948207     0.06700
C344        C  0.34568530  0.14969834  0.56243423     0.03800
C345        C  0.31613333  0.13413300  0.56347662    -0.12400
C346        C  0.30066817  0.14747602  0.56672007     0.01300
C347        C  0.31500757  0.17708379  0.56775375    -0.10900
C348        C  0.34458055  0.19329426  0.56678211     0.03700
C349        C  0.35958868  0.17934211  0.56383290    -0.10300
H350        H  0.30482097  0.11141132  0.56205995     0.09300
H351        H  0.30320330  0.18737788  0.57100823     0.06900
H352        H  0.38225389  0.19170243  0.56302252     0.06700
C353        C  0.16087366  0.33523365  0.78986729     0.03800
C354        C  0.18130712  0.35908141  0.80491303    -0.12400
C355        C  0.19114682  0.35607199  0.83146733     0.01300
C356        C  0.17601259  0.33042246  0.84615283    -0.10900
C357        C  0.15259306  0.30744094  0.83307115     0.03700
C358        C  0.14512723  0.31005069  0.80520786    -0.10300
H359        H  0.19301808  0.37921444  0.79430870     0.09300
H360        H  0.18408889  0.32742683  0.86607763     0.06900
H361        H  0.12907457  0.29101411  0.79483895     0.06700
C362        C  0.16275058  0.33389326  0.75810186     0.03800
C363        C  0.14201374  0.31041008  0.74277531    -0.12400
C364        C  0.14877991  0.30138357  0.71788700     0.01300
C365        C  0.17504996  0.31858887  0.70528033    -0.10900
C366        C  0.19500684  0.34374001  0.71871474     0.03700
C367        C  0.18876301  0.35124330  0.74477412    -0.10300
H368        H  0.12140047  0.29698111  0.75167748     0.09300
H369        H  0.18088042  0.31123452  0.68672725     0.06900
H370        H  0.20578486  0.36923905  0.75563281     0.06700
C371        C  0.04066747  0.45970884  0.86345536     0.43100
N372        N  0.00796405  0.46924321  0.86233398     0.02000
C373        C  0.03129833  0.09482402  0.89362425    -0.05900
H374        H  0.07190565  0.06251421  0.96989537     0.07500
C375        C  0.47436282  0.47867776  0.98941036    -0.06300
Co376      Co  0.03664045  0.02587804  0.86869997     0.74200
N377        N  0.05205784  0.04430926  0.92943157    -0.25400
Co378      Co  0.01360106  0.04196004  0.93000216     0.74100
C379        C  0.49815899  0.49825589  0.50717320     0.43200
N380        N  0.45379567  0.44168805  0.92535855     0.01600
N381        N  0.50108429  0.01859529  0.96480791     0.01100
N382        N  0.04720510  0.08484398  0.85387768    -0.46300
H383        H  0.07519755  0.50658670  0.86592461     0.07500
N384        N  0.06102754  0.03843416  0.90607626     0.02000
N385        N  0.47310471  0.04403271  0.93549592     0.01700
C386        C  0.44132580  0.05362586  0.94514816     0.43300
N387        N  0.46227404  0.43554654  0.90179902    -0.24900
C388        C  0.01809753  0.02277701  0.80466900    -0.05800
N389        N  0.01250730  0.44801011  0.86200082    -0.46000
N390        N  0.46915579  0.06505304  0.94143841    -0.46200
C391        C  0.48702124  0.00888912  0.78642985     0.43100
N392        N  0.03546599  0.06300429  0.87141165     0.02000
N393        N  0.43587797  0.45997234  0.86803000    -0.24900
N394        N  0.03150001  0.49405422  0.86369360    -0.25400
N395        N  0.42796242  0.46652955  0.89177864     0.01600
H396        H  0.41458037  0.44309201  0.82770471     0.07500
H397        H  0.40632577  0.00672164  0.94302465     0.07500
N398        N  0.02665939  0.06868948  0.89506683    -0.25500
N399        N  0.47865954  0.49140677  0.96415228    -0.25100
N400        N  0.48729772  0.48884469  0.83107533     0.02000
C401        C  0.09590111  0.05426822  0.93536034     0.43400
C402        C  0.45845996  0.40969460  0.90436026    -0.06300
N403        N  0.44949579  0.01931336  0.93499052    -0.25100
H404        H  0.45601093  0.45881703  0.99519485     0.07500
N405        N  0.08726723  0.04433660  0.90863718    -0.46300
H406        H  0.46209139  0.39843520  0.88782048     0.07500
C407        C  0.39264927  0.45255699  0.86370540     0.43200
C408        C  0.05330392  0.49015877  0.86436225    -0.05800
Co409      Co  0.47467863  0.46207566  0.86641083     0.73800
N410        N  0.44357350  0.42083384  0.94407316    -0.46000
C411        C  0.04494191  0.10556467  0.86637322     0.43500
N412        N  0.47689786  0.48141757  0.80485127    -0.46000
Co413      Co  0.45271166  0.47868297  0.92834558     0.73900
C414        C  0.42811751  0.02319149  0.94095415    -0.06300
C415        C  0.07261212  0.05440482  0.94919179    -0.05900
N416        N  0.01189259  0.01230481  0.83123659    -0.25400
N417        N  0.01214654  0.01867441  0.98975966    -0.46200
H418        H  0.02798693  0.10574381  0.91077440     0.07500
C419        C  0.41481220  0.45094878  0.84882877    -0.06300
Cl420      Cl  0.49093892  0.00755973  0.89794115    -0.49300
C421        C  0.44609957  0.39998746  0.93246295     0.43200
H422        H  0.03738041  0.04155909  0.79844886     0.07400
N423        N  0.40229993  0.46216617  0.89016330    -0.46000
C424        C  0.10028950  0.05076777  0.61214863     0.43100
N425        N  0.05816494  0.04113383  0.61949360     0.02000
C426        C  0.47502853  0.47612547  0.73852617    -0.05900
H427        H  0.50226334  0.41429465  0.67341837     0.07500
C428        C  0.44664602  0.41771182  0.59670101    -0.06300
Co429      Co  0.03833930  0.01790522  0.67790671     0.74200
N430        N  0.00729337  0.46170448  0.67916704    -0.25400
Co431      Co  0.47494693  0.45582760  0.67623083     0.74100
C432        C  0.44926986  0.39565490  0.61085974     0.43200
N433        N  0.48443231  0.49087587  0.58028507     0.01600
N434        N  0.46330574  0.43086602  0.63939319     0.01700
N435        N  0.01722601  0.01565683  0.73844575    -0.46300
H436        H  0.10261093  0.03336545  0.65598595     0.07500
N437        N  0.03173177  0.48563761  0.68032883     0.02000
N438        N  0.43707722  0.45531557  0.67312812     0.01700
C439        C  0.39530101  0.44695292  0.67937696     0.43300
N440        N  0.00814621  0.01590752  0.58062422    -0.24900
C441        C  0.04850855  0.07660799  0.69706708    -0.05800
N442        N  0.07900166  0.05290026  0.60098234    -0.46000
N443        N  0.41618569  0.44471589  0.69159817    -0.46200
C444        C  0.04672973  0.09915765  0.68297510     0.43100
N445        N  0.01141750  0.00374348  0.71283509     0.02000
N446        N  0.47925992  0.04116538  0.60563936    -0.24900
N447        N  0.06477686  0.03213409  0.64259283    -0.25400
N448        N  0.45498532  0.01702533  0.60477713     0.01600
H449        H  0.49059247  0.08419549  0.59768330     0.07500
H450        H  0.39368686  0.46296173  0.63457463     0.07500
N451        N  0.48718158  0.48126559  0.71285055    -0.25500
N452        N  0.45606915  0.43872924  0.61591872    -0.25100
N453        N  0.03204263  0.06435372  0.65421245     0.02000
C454        C  0.04217167  0.45342127  0.68045028     0.43400
C455        C  0.02001944  0.02178705  0.55493061    -0.06300
N456        N  0.43069989  0.46358872  0.64934995    -0.25100
H457        H  0.43808382  0.41749880  0.57586836     0.07500
N458        N  0.05330522  0.48164363  0.68126712    -0.46300
H459        H  0.03902760  0.04106741  0.54914194     0.07500
C460        C  0.44428705  0.04811191  0.59457841     0.43200
C461        C  0.09091687  0.03701487  0.63978556    -0.05800
Co462      Co  0.02040227  0.04070281  0.61705718     0.73800
N463        N  0.47869509  0.47968320  0.55446599    -0.46000
C464        C  0.48618702  0.00656057  0.75486023     0.43500
N465        N  0.03661448  0.09012512  0.65648543    -0.46000
Co466      Co  0.45694173  0.47689484  0.61438995     0.73900
C467        C  0.40487754  0.45938749  0.65138502    -0.06300
C468        C  0.01178286  0.44023575  0.67931200    -0.05900
N469        N  0.03912281  0.05598165  0.67746514    -0.25400
N470        N  0.45946509  0.40524632  0.63730277    -0.46200
H471        H  0.45573396  0.45719752  0.74443357     0.07500
C472        C  0.47464132  0.06211548  0.59936294    -0.06300
Cl473      Cl  0.49173707  0.00107476  0.64441030    -0.49300
C474        C  0.50045334  0.49747475  0.53800458     0.43200
H475        H  0.05722252  0.07652636  0.71772766     0.07400
N476        N  0.43359265  0.02025948  0.59830643    -0.46000
C477        C  0.10528536  0.22612795  0.68812186     0.16600
C478        C  0.09048770  0.20173808  0.67146471    -0.32500
C479        C  0.08017981  0.17573902  0.68507514     0.21000
C480        C  0.08454660  0.17392624  0.71392162     0.03200
C481        C  0.09893689  0.19829829  0.73069523    -0.22200
C482        C  0.10901663  0.22429301  0.71710774     0.12300
S483        S  0.12056068  0.25982656  0.67548978    -0.05900
C484        C  0.13134822  0.27145819  0.70979315    -0.09300
C485        C  0.12377117  0.25022461  0.72965710    -0.25900
S486        S  0.07173738  0.14034213  0.72591149    -0.03100
C487        C  0.06008751  0.12875293  0.69173685    -0.16600
C488        C  0.06586666  0.14986100  0.67234157    -0.14600
H489        H  0.08743204  0.20296234  0.64882746     0.20800
H490        H  0.10241174  0.19709403  0.75325322     0.16800
H491        H  0.12940464  0.25368485  0.75206555     0.19400
H492        H  0.06060721  0.14650162  0.64986281     0.12700
C493        C  0.26933599  0.39161139  0.69045505     0.16600
C494        C  0.29352119  0.41142942  0.67605720    -0.32500
C495        C  0.31950634  0.41670896  0.68656712     0.21000
C496        C  0.32147805  0.40319107  0.71053809     0.03200
C497        C  0.29733712  0.38373523  0.72523547    -0.22200
C498        C  0.27133785  0.37819519  0.71451045     0.12300
S499        S  0.23570724  0.38172925  0.68081043    -0.05900
C500        C  0.22437777  0.35930834  0.70944006    -0.09300
C501        C  0.24558054  0.35973849  0.72556857    -0.25900
S502        S  0.35487561  0.41142261  0.71886715    -0.03100
C503        C  0.36621402  0.43303445  0.68952875    -0.16600
C504        C  0.34513297  0.43404423  0.67459470    -0.14600
H505        H  0.29212612  0.42190650  0.65719429     0.20800
H506        H  0.29870495  0.37300180  0.74389937     0.16800
H507        H  0.24223333  0.34747167  0.74467806     0.19400
H508        H  0.34818255  0.44604718  0.65537199     0.12700
C509        C  0.11882762  0.41459586  0.72039722     0.16600
C510        C  0.11856892  0.43729270  0.70748019    -0.32500
C511        C  0.09336002  0.43180660  0.69460410     0.21000
C512        C  0.07066973  0.40448377  0.69175434     0.03200
C513        C  0.07194715  0.38154918  0.70226540    -0.22200
C514        C  0.09585921  0.38741266  0.71809949     0.12300
S515        S  0.14131883  0.41894906  0.74741673    -0.05900
C516        C  0.11682038  0.38549195  0.75910112    -0.09300
C517        C  0.09597725  0.37007095  0.73883526    -0.25900
S518        S  0.04021749  0.40230179  0.68134840    -0.03100
C519        C  0.05770727  0.43854333  0.68219950    -0.16600
C520        C  0.08613254  0.45154454  0.68860240    -0.14600
H521        H  0.13547727  0.45873006  0.71140089     0.20800
H522        H  0.05334878  0.36065329  0.70221736     0.16800
H523        H  0.07787796  0.34934466  0.74265617     0.19400
H524        H  0.10002471  0.47403531  0.69149928     0.12700
C525        C  0.09575693  0.18136939  0.84225353     0.16600
C526        C  0.11730897  0.20603236  0.82991334    -0.32500
C527        C  0.12246514  0.23184112  0.84078140     0.21000
C528        C  0.10695739  0.23323417  0.86295534     0.03200
C529        C  0.08546803  0.20852324  0.87541944    -0.22200
C530        C  0.08025929  0.18266329  0.86449106     0.12300
S531        S  0.08636069  0.14795397  0.83228319    -0.05900
C532        C  0.06146997  0.13555371  0.85857916    -0.09300
C533        C  0.06045627  0.15641915  0.87384569    -0.25900
S534        S  0.11525432  0.26673451  0.87149222    -0.03100
C535        C  0.13967654  0.27879587  0.84477958    -0.16600
C536        C  0.14137564  0.25789001  0.83046982    -0.14600
H537        H  0.12933072  0.20515551  0.81237843     0.20800
H538        H  0.07309909  0.20938987  0.89259544     0.16800
H539        H  0.04644447  0.15266639  0.89135047     0.19400
H540        H  0.15456357  0.26152992  0.81220374     0.12700
C541        C  0.26693829  0.40323153  0.85880355     0.16600
C542        C  0.29175981  0.41805891  0.87491435    -0.32500
C543        C  0.31712802  0.42574341  0.86139169     0.21000
C544        C  0.31791498  0.41922562  0.83305356     0.03200
C545        C  0.29319901  0.40509170  0.81674358    -0.22200
C546        C  0.26785708  0.39726203  0.83032562     0.12300
S547        S  0.23367793  0.38930091  0.87187346    -0.05900
C548        C  0.22103204  0.37574701  0.83844288    -0.09300
C549        C  0.24167662  0.38182823  0.81852835    -0.25900
S550        S  0.35058753  0.42846305  0.82129395    -0.03100
C551        C  0.36328844  0.44132407  0.85491281    -0.16600
C552        C  0.34316133  0.43871564  0.87391697    -0.14600
H553        H  0.29125907  0.42256272  0.89725321     0.20800
H554        H  0.29358432  0.39962677  0.79468079     0.16800
H555        H  0.23764902  0.37398230  0.79682665     0.19400
H556        H  0.34721820  0.44510432  0.89607436     0.12700
C557        C  0.08931635  0.43116672  0.85239633     0.16600
C558        C  0.11208744  0.42944732  0.84268123    -0.32500
C559        C  0.10612194  0.40503352  0.82778894     0.21000
C560        C  0.07889526  0.38235731  0.82499261     0.03200
C561        C  0.05626984  0.38321616  0.83671233    -0.22200
C562        C  0.06200325  0.40859791  0.84928792     0.12300
S563        S  0.09176993  0.46178677  0.86284318    -0.05900
C564        C  0.05565742  0.44437942  0.86179622    -0.09300
C565        C  0.04252989  0.41595782  0.85521842    -0.25900
S566        S  0.07496034  0.35853784  0.79979147    -0.03100
C567        C  0.10946542  0.38131584  0.78993937    -0.16600
C568        C  0.12405916  0.40348462  0.80913536    -0.14600
H569        H  0.13311421  0.44778768  0.84318714     0.20800
H570        H  0.03486279  0.36637889  0.83267302     0.16800
H571        H  0.02008964  0.40214132  0.85226618     0.19400
H572        H  0.14527116  0.42090427  0.80595009     0.12700
C573        C  0.39133317  0.07131212  0.57845418     0.16600
C574        C  0.36746852  0.07369135  0.57680788    -0.32500
C575        C  0.37126265  0.09985640  0.56895569     0.21000
C576        C  0.39747891  0.12239396  0.56210734     0.03200
C577        C  0.42136415  0.11993525  0.56337564    -0.22200
C578        C  0.41773114  0.09403011  0.57221356     0.12300
S579        S  0.39129562  0.04196210  0.58956044    -0.05900
C580        C  0.42733505  0.06063322  0.58663266    -0.09300
C581        C  0.43854425  0.08804256  0.57694112    -0.25900
S582        S  0.39772407  0.15269010  0.55469296    -0.03100
C583        C  0.36210772  0.13517379  0.56168314    -0.16600
C584        C  0.35100417  0.10692671  0.56869612    -0.14600
H585        H  0.34695708  0.05618796  0.58241818     0.20800
H586        H  0.44200662  0.13774813  0.55874038     0.16800
H587        H  0.46071593  0.10289691  0.57389778     0.19400
H588        H  0.32952615  0.09235223  0.57473408     0.12700
C589        C  0.37515964  0.27391967  0.57206508     0.16600
C590        C  0.37989549  0.30137166  0.57136264    -0.32500
C591        C  0.40496908  0.32315578  0.58356479     0.21000
C592        C  0.42444404  0.31781867  0.59599730     0.03200
C593        C  0.42005511  0.29047642  0.59596580    -0.22200
C594        C  0.39497143  0.26870334  0.58372576     0.12300
S595        S  0.34527595  0.24438368  0.56017643    -0.05900
C596        C  0.35976483  0.22460057  0.57021470    -0.09300
C597        C  0.38640707  0.24058999  0.58254334    -0.25900
S598        S  0.45217691  0.34660236  0.61211215    -0.03100
C599        C  0.43761129  0.36613690  0.60163603    -0.16600
C600        C  0.41268712  0.35096450  0.58627025    -0.14600
H601        H  0.36439369  0.30546323  0.56231158     0.20800
H602        H  0.43518907  0.28623002  0.60571706     0.16800
H603        H  0.39863978  0.23208552  0.59101950     0.19400
H604        H  0.40014391  0.35949543  0.57877030     0.12700
C605        C  0.22395746  0.09703089  0.58935948     0.16600
C606        C  0.19946204  0.07633725  0.60271275    -0.32500
C607        C  0.17469205  0.07657452  0.59790713     0.21000
C608        C  0.17409461  0.09613919  0.57997545     0.03200
C609        C  0.19874045  0.11704998  0.56670933    -0.22200
C610        C  0.22376467  0.11724784  0.57213891     0.12300
S611        S  0.25610168  0.10053945  0.59332321    -0.05900
C612        C  0.26996825  0.13011551  0.57213014    -0.09300
C613        C  0.25022166  0.13654558  0.56246064    -0.25900
S614        S  0.14171847  0.09265230  0.57708615    -0.03100
C615        C  0.12918343  0.06512312  0.60094120    -0.16600
C616        C  0.14911725  0.05891380  0.61010236    -0.14600
H617        H  0.19980578  0.06093709  0.61668945     0.20800
H618        H  0.19851378  0.13276581  0.55314132     0.16800
H619        H  0.25501106  0.15452435  0.54933456     0.19400
H620        H  0.14519156  0.04250564  0.62520618     0.12700
C621        C  0.36704146  0.09996709  0.97756208     0.16600
C622        C  0.36934355  0.07590322  0.97616738    -0.32500
C623        C  0.39503622  0.07951611  0.96710448     0.21000
C624        C  0.41756738  0.10601671  0.96062330     0.03200
C625        C  0.41529241  0.12995257  0.96224630    -0.22200
C626        C  0.38947326  0.12623625  0.97049234     0.12300
S627        S  0.33722126  0.10006534  0.98571630    -0.05900
C628        C  0.35493408  0.13589358  0.97878493    -0.09300
C629        C  0.38278935  0.14677078  0.97118808    -0.25900
S630        S  0.44675370  0.10626175  0.94952832    -0.03100
C631        C  0.42838295  0.07015503  0.95278245    -0.16600
C632        C  0.40111174  0.05870984  0.96255677    -0.14600
H633        H  0.35165653  0.05521608  0.98105851     0.20800
H634        H  0.43269809  0.15052892  0.95651585     0.16800
H635        H  0.39733584  0.16830913  0.96502757     0.19400
H636        H  0.38649230  0.03645070  0.96586247     0.12700
C637        C  0.39350485  0.27399453  0.94894613     0.16600
C638        C  0.41314126  0.29811218  0.93418091    -0.32500
C639        C  0.41719751  0.32412410  0.94292699     0.21000
C640        C  0.40276620  0.32618781  0.96577318     0.03200
C641        C  0.38305668  0.30197635  0.98062409    -0.22200
C642        C  0.37850963  0.27579038  0.97141820     0.12300
S643        S  0.38537447  0.24059218  0.94105016    -0.05900
C644        C  0.36107515  0.22860369  0.96796238    -0.09300
C645        C  0.35707821  0.24858757  0.48674055    -0.25900
S646        S  0.41024923  0.35975984  0.97234084    -0.03100
C647        C  0.43243560  0.37091019  0.94352201    -0.16600
C648        C  0.43425438  0.34964667  0.93015702    -0.14600
H649        H  0.42442645  0.29659861  0.91629755     0.20800
H650        H  0.35900977  0.30001353  0.49225704     0.16800
H651        H  0.33768560  0.24334524  0.49708675     0.19400
H652        H  0.44674528  0.35250753  0.91152474     0.12700
C653        C  0.22220149  0.10923328  0.94627898     0.16600
C654        C  0.19779356  0.09087139  0.93083916    -0.32500
C655        C  0.17208736  0.08522899  0.94177327     0.21000
C656        C  0.17059643  0.09708337  0.96717001     0.03200
C657        C  0.19512492  0.11559008  0.98267972    -0.22200
C658        C  0.22099067  0.12155027  0.97149416     0.12300
S659        S  0.25753772  0.11362893  0.44364096    -0.05900
C660        C  0.26778101  0.13921948  0.96639688    -0.09300
C661        C  0.24728955  0.13914432  0.98306834    -0.25900
S662        S  0.13718527  0.08781342  0.97629004    -0.03100
C663        C  0.12534744  0.06825135  0.94526869    -0.16600
C664        C  0.14626776  0.06866479  0.92918911    -0.14600
H665        H  0.20109436  0.07721251  0.41728238     0.20800
H666        H  0.19411238  0.12508957  0.00238332     0.16800
H667        H  0.25138984  0.15081773  0.00273840     0.19400
H668        H  0.14285185  0.05798263  0.90894854     0.12700
C669        C  0.34306821  0.65314895  0.94391953     0.03800
C670        C  0.31362328  0.63996975  0.94305879    -0.12400
C671        C  0.30030343  0.65563468  0.94352401     0.01300
C672        C  0.31672619  0.68513618  0.94558447    -0.10900
C673        C  0.34621607  0.69894297  0.94591474     0.03700
C674        C  0.35912971  0.68281260  0.94510908    -0.10300
H675        H  0.30070338  0.61725274  0.94200655     0.09300
H676        H  0.30661719  0.69737638  0.94515968     0.06900
H677        H  0.38178146  0.69366421  0.94510492     0.06700
C678        C  0.34792097  0.65248813  0.08449360     0.03800
C679        C  0.31841331  0.63611193  0.08622425    -0.12400
C680        C  0.30186310  0.64851518  0.08469609     0.01300
C681        C  0.31520355  0.67794496  0.08122359    -0.10900
C682        C  0.34467953  0.69480645  0.08051733     0.03700
C683        C  0.36072445  0.68188934  0.08185035    -0.10300
H684        H  0.30809356  0.61360564  0.08930823     0.09300
H685        H  0.30284346  0.68791516  0.08099351     0.06900
H686        H  0.38338303  0.69506511  0.08106230     0.06700
C687        C  0.15822082  0.84277843  0.28769985     0.03800
C688        C  0.18371068  0.85821756  0.30273435    -0.12400
C689        C  0.18768781  0.84941439  0.32942400     0.01300
C690        C  0.16476277  0.82657526  0.34287173    -0.10900
C691        C  0.13827853  0.81253702  0.32924098     0.03700
C692        C  0.13479182  0.82238684  0.30287291    -0.10300
H693        H  0.20197132  0.87510929  0.29245321     0.09300
H694        H  0.16816215  0.81802896  0.36220501     0.06900
H695        H  0.11434057  0.81115384  0.29262193     0.06700
C696        C  0.15898185  0.84081715  0.25580220     0.03800
C697        C  0.14126969  0.81465461  0.24238740    -0.12400
C698        C  0.14823841  0.80781293  0.21630107     0.01300
C699        C  0.17288245  0.82773996  0.20258401    -0.10900
C700        C  0.19058998  0.85426958  0.21515375     0.03700
C701        C  0.18228218  0.86133871  0.24040754    -0.10300
H702        H  0.12329021  0.79802420  0.25324298     0.09300
H703        H  0.17955732  0.82159518  0.18376942     0.06900
H704        H  0.19585808  0.88216814  0.24929870     0.06700
C705        C  0.04636082  0.95505260  0.36850422     0.43100
N706        N  0.01376033  0.96477746  0.36798435     0.02000
C707        C  0.02419842  0.60068103  0.39604336    -0.05900
H708        H  0.07196419  0.56782965  0.46561441     0.07500
C709        C  0.47447356  0.97772475  0.48763302    -0.06300
Co710      Co  0.03117997  0.53424884  0.36516843     0.74200
N711        N  0.04961873  0.55081473  0.42580329    -0.25400
Co712      Co  0.01063727  0.54723153  0.42985583     0.74100
C713        C  0.49870901  0.99982814  0.00538614     0.43200
N714        N  0.45237434  0.94343735  0.42304303     0.01600
N715        N  0.50176508  0.51645564  0.46619557     0.01100
N716        N  0.03728277  0.59222689  0.35349695    -0.46300
H717        H  0.08104901  0.00195519  0.36975449     0.07500
N718        N  0.05726580  0.54577418  0.40111776     0.02000
N719        N  0.47626095  0.54101026  0.43097121     0.01700
C720        C  0.44450991  0.55183497  0.43002625     0.43300
N721        N  0.46115190  0.93871204  0.39889196    -0.24900
C722        C  0.01161422  0.53269578  0.30231634    -0.05800
N723        N  0.01819158  0.94347665  0.36735186    -0.46000
N724        N  0.47241501  0.56262886  0.43162014    -0.46200
C725        C  0.49544978  0.50266124  0.29013094     0.43100
N726        N  0.02892082  0.57059936  0.37106985     0.02000
N727        N  0.43391256  0.96349474  0.36784239    -0.24900
N728        N  0.03740172  0.98953869  0.36896051    -0.25400
N729        N  0.42570541  0.96877665  0.39216987     0.01600
H730        H  0.41204514  0.94493621  0.32828062     0.07500
H731        H  0.40906749  0.50509541  0.42731160     0.07500
N732        N  0.02144083  0.57526457  0.39612824    -0.25500
N733        N  0.47756147  0.99174141  0.46344499    -0.25100
N734        N  0.48494874  0.99455130  0.33041960     0.02000
C735        C  0.09380491  0.56066009  0.42790780     0.43400
C736        C  0.45747854  0.91284170  0.39967848    -0.06300
N737        N  0.45254900  0.51647354  0.42919624    -0.25100
H738        H  0.45671640  0.95724105  0.49289715     0.07500
N739        N  0.08350002  0.55147475  0.40144533    -0.46300
H740        H  0.46108574  0.90250410  0.38216324     0.07500
C741        C  0.38931644  0.95194572  0.36521449     0.43200
C742        C  0.05910565  0.98552022  0.36941121    -0.05800
Co743      Co  0.47297570  0.96663483  0.36482421     0.73800
N744        N  0.44181451  0.92143402  0.44038411    -0.46000
C745        C  0.03458277  0.61186861  0.36782719     0.43500
N746        N  0.47418788  0.98791957  0.30425697    -0.46000
Co747      Co  0.45088356  0.98003485  0.42844803     0.73900
C748        C  0.43112296  0.52114025  0.42846697    -0.06300
C749        C  0.07144272  0.56055456  0.44413747    -0.05900
N750        N  0.00540598  0.52182667  0.32871673    -0.25400
N751        N  0.01179062  0.52224985  0.48787484    -0.46200
H752        H  0.02059259  0.61052693  0.41402935     0.07500
C753        C  0.41230551  0.95302920  0.34929358    -0.06300
Cl754      Cl  0.49580892  0.50298817  0.40016700    -0.49300
C755        C  0.44468439  0.90141362  0.42723714     0.43200
H756        H  0.03113173  0.55127675  0.29622542     0.07400
N757        N  0.39911009  0.96176803  0.39161284    -0.46000
C758        C  0.09843323  0.55010262  0.11350666     0.43100
N759        N  0.05682169  0.54301859  0.11816623     0.02000
C760        C  0.47074069  0.98431108  0.23811023    -0.05900
H761        H  0.49722206  0.92008269  0.17892369     0.07500
C762        C  0.44376044  0.92034401  0.09872489    -0.06300
Co763      Co  0.03494633  0.52350098  0.17698960     0.74200
N764        N  0.00753772  0.95252894  0.17661272    -0.25400
Co765      Co  0.47088018  0.96257013  0.17664896     0.74100
C766        C  0.44462122  0.89854575  0.11559590     0.43200
N767        N  0.48377957  0.99361906  0.07836417     0.01600
N768        N  0.45977677  0.93594105  0.14117084     0.01700
N769        N  0.01245994  0.52462959  0.23637891    -0.46300
H770        H  0.09854511  0.53504148  0.15915165     0.07500
N771        N  0.03268633  0.97561445  0.17710446     0.02000
N772        N  0.43346525  0.96246180  0.17075647     0.01700
C773        C  0.39096971  0.95282966  0.17371457     0.43300
N774        N  0.00768594  0.51623685  0.07797471    -0.24900
C775        C  0.04644029  0.58336988  0.19140161    -0.05800
N776        N  0.07817976  0.55271908  0.10027773    -0.46000
N777        N  0.41179659  0.95229465  0.18825288    -0.46200
C778        C  0.04641587  0.60593971  0.17544683     0.43100
N779        N  0.00716985  0.51185122  0.21121602     0.02000
N780        N  0.48181490  0.54156291  0.11398724    -0.24900
N781        N  0.06222992  0.53503052  0.14266518    -0.25400
N782        N  0.45742327  0.51764520  0.11247698     0.01600
H783        H  0.49341187  0.58518107  0.11148042     0.07500
H784        H  0.39060526  0.96594478  0.12731922     0.07500
N785        N  0.48261260  0.98931699  0.21230374    -0.25500
N786        N  0.45364558  0.94273194  0.11635535    -0.25100
N787        N  0.03106528  0.56967387  0.14842138     0.02000
C788        C  0.04054589  0.94182259  0.17302533     0.43400
C789        C  0.02006024  0.52063701  0.05265291    -0.06300
N790        N  0.42774356  0.96910978  0.14560344    -0.25100
H791        H  0.43547558  0.91897991  0.07747465     0.07500
N792        N  0.05319269  0.97015225  0.17519784    -0.46300
H793        H  0.03917118  0.53960843  0.04643498     0.07500
C794        C  0.44692367  0.54966417  0.10827326     0.43200
C795        C  0.08788801  0.53844662  0.14163845    -0.05800
Co796      Co  0.01957376  0.54345458  0.11268564     0.73800
N797        N  0.47855426  0.98192153  0.05276718    -0.46000
C798        C  0.49368720  0.50127831  0.25856151     0.43500
N799        N  0.03690416  0.59606780  0.14889734    -0.46000
Co800      Co  0.45522228  0.98105946  0.11168006     0.73900
C801        C  0.40145106  0.96384374  0.14549249    -0.06300
C802        C  0.01040892  0.93012885  0.17429872    -0.05900
N803        N  0.03686224  0.56190659  0.17289318    -0.25400
N804        N  0.45461416  0.90980661  0.14159608    -0.46200
H805        H  0.45182155  0.96515291  0.24432935     0.07500
C806        C  0.47733401  0.56306199  0.11162668    -0.06300
Cl807      Cl  0.49527371  0.49968072  0.14761606    -0.49300
C808        C  0.50068033  0.99928605  0.03639048     0.43200
H809        H  0.05432920  0.58374078  0.21263896     0.07400
N810        N  0.43600865  0.52153113  0.10888349    -0.46000
C811        C  0.10583615  0.73345806  0.18350250     0.16600
C812        C  0.09029963  0.70952553  0.16621054    -0.32500
C813        C  0.08038560  0.68301650  0.17871423     0.21000
C814        C  0.08576133  0.68047130  0.20711165     0.03200
C815        C  0.10101909  0.70430330  0.22441082    -0.22200
C816        C  0.11081592  0.73069719  0.21194890     0.12300
S817        S  0.12021651  0.76765267  0.17252819    -0.05900
C818        C  0.13252253  0.77811567  0.20678953    -0.09300
C819        C  0.12602936  0.75615305  0.22536566    -0.25900
S820        S  0.07297637  0.64668645  0.21807774    -0.03100
C821        C  0.06011017  0.63570993  0.18407847    -0.16600
C822        C  0.06544426  0.65728705  0.16539647    -0.14600
H823        H  0.08629854  0.71147535  0.14397390     0.20800
H824        H  0.10525819  0.70237282  0.24658289     0.16800
H825        H  0.13229525  0.75873354  0.24758698     0.19400
H826        H  0.05935919  0.65435079  0.14311546     0.12700
C827        C  0.26422651  0.89366489  0.18195278     0.16600
C828        C  0.28760276  0.90467559  0.16413509    -0.32500
C829        C  0.31427269  0.91737280  0.17708467     0.21000
C830        C  0.31763432  0.91879975  0.20643827     0.03200
C831        C  0.29428470  0.90817975  0.22424562    -0.22200
C832        C  0.26762908  0.89576651  0.21128567     0.12300
S833        S  0.22996227  0.87603087  0.17056435    -0.05900
C834        C  0.22007086  0.87191992  0.20573441    -0.09300
C835        C  0.24245604  0.88362592  0.22498635    -0.25900
S836        S  0.35176048  0.93403147  0.21787720    -0.03100
C837        C  0.36156695  0.93916248  0.18272847    -0.16600
C838        C  0.33943061  0.92923030  0.16339043    -0.14600
H839        H  0.28511388  0.90316437  0.14119918     0.20800
H840        H  0.29675492  0.90932353  0.24717101     0.16800
H841        H  0.24040188  0.88218303  0.24791028     0.19400
H842        H  0.34156904  0.93028217  0.14046733     0.12700
C843        C  0.11434769  0.90048060  0.21191844     0.16600
C844        C  0.11481285  0.92255576  0.19685462    -0.32500
C845        C  0.08945392  0.91737471  0.18470184     0.21000
C846        C  0.06572002  0.89051851  0.18439501     0.03200
C847        C  0.06607151  0.86789382  0.19715235    -0.22200
C848        C  0.09031935  0.87390421  0.21244067     0.12300
S849        S  0.13791291  0.90612417  0.23824409    -0.05900
C850        C  0.11294099  0.87455667  0.25327239    -0.09300
C851        C  0.09045906  0.85821278  0.23492397    -0.25900
S852        S  0.03557543  0.88939304  0.17483821    -0.03100
C853        C  0.05467621  0.92560449  0.17327342    -0.16600
C854        C  0.08328739  0.93763961  0.17771673    -0.14600
H855        H  0.13263415  0.94384826  0.19874400     0.20800
H856        H  0.04680676  0.84769482  0.19925397     0.16800
H857        H  0.07190772  0.83858040  0.24092388     0.19400
H858        H  0.09815039  0.96009463  0.17915012     0.12700
C859        C  0.06720446  0.68569435  0.33524087     0.16600
C860        C  0.08056874  0.70955660  0.31789759    -0.32500
C861        C  0.09136498  0.73596845  0.33095025     0.21000
C862        C  0.08887023  0.73871587  0.35992373     0.03200
C863        C  0.07459452  0.71475125  0.37712690    -0.22200
C864        C  0.06402645  0.68828270  0.36411041     0.12300
S865        S  0.05539702  0.65198602  0.32407347    -0.05900
C866        C  0.04586772  0.64119032  0.35863685    -0.09300
C867        C  0.05141857  0.66274344  0.37755212    -0.25900
S868        S  0.10656364  0.77288171  0.37200510    -0.03100
C869        C  0.11706130  0.78343716  0.33753109    -0.16600
C870        C  0.10706935  0.76145916  0.31801329    -0.14600
H871        H  0.08347071  0.70770636  0.29541075     0.20800
H872        H  0.07286324  0.71667650  0.39984943     0.16800
H873        H  0.04757073  0.66009503  0.40021236     0.19400
H874        H  0.11258793  0.76393816  0.29571451     0.12700
C875        C  0.26199154  0.88498106  0.36249771     0.16600
C876        C  0.28638103  0.90042272  0.37921104    -0.32500
C877        C  0.31238789  0.91204519  0.36546849     0.21000
C878        C  0.31409124  0.90806132  0.33658450     0.03200
C879        C  0.28983014  0.89232866  0.32006638    -0.22200
C880        C  0.26395910  0.88114959  0.33366760     0.12300
S881        S  0.22819672  0.87101268  0.37415720    -0.05900
C882        C  0.21693639  0.86086675  0.33954266    -0.09300
C883        C  0.23835104  0.86691682  0.32063570    -0.25900
S884        S  0.34744634  0.92383488  0.32378840    -0.03100
C885        C  0.35933965  0.93604931  0.35770180    -0.16600
C886        C  0.33840697  0.92826197  0.37770601    -0.14600
H887        H  0.28516441  0.90379719  0.40170408     0.20800
H888        H  0.29103457  0.88938982  0.29747859     0.16800
H889        H  0.23542651  0.86208109  0.29809792     0.19400
H890        H  0.34205888  0.93379317  0.40008371     0.12700
C891        C  0.09372984  0.92699779  0.34828439     0.16600
C892        C  0.11536337  0.92509689  0.33563761    -0.32500
C893        C  0.10809947  0.89989849  0.32158154     0.21000
C894        C  0.08091612  0.87691994  0.32194602     0.03200
C895        C  0.05958048  0.87821764  0.33620169    -0.22200
C896        C  0.06641183  0.90411984  0.34836548     0.12300
S897        S  0.09709764  0.95776245  0.35967070    -0.05900
C898        C  0.06120198  0.93993597  0.36356697    -0.09300
C899        C  0.04762871  0.91136446  0.35752952    -0.25900
S900        S  0.07476156  0.85133433  0.29792020    -0.03100
C901        C  0.10808195  0.87336620  0.28456880    -0.16600
C902        C  0.12419415  0.89714011  0.30148653    -0.14600
H903        H  0.13621264  0.94352405  0.33385467     0.20800
H904        H  0.03799698  0.86095780  0.33484730     0.16800
H905        H  0.02506842  0.89721002  0.35755543     0.19400
H906        H  0.14492138  0.91431553  0.29602661     0.12700
C907        C  0.39554367  0.57504108  0.09318543     0.16600
C908        C  0.37214932  0.57735157  0.08675903    -0.32500
C909        C  0.37562739  0.60427139  0.08786836     0.21000
C910        C  0.40127821  0.62786329  0.09488561     0.03200
C911        C  0.42480833  0.62563630  0.10096571    -0.22200
C912        C  0.42130402  0.59868486  0.09999760     0.12300
S913        S  0.39536061  0.54415116  0.09392951    -0.05900
C914        C  0.43041940  0.56324245  0.10333569    -0.09300
C915        C  0.44147181  0.59205911  0.10570557    -0.25900
S916        S  0.40082818  0.65839540  0.09587669    -0.03100
C917        C  0.36548199  0.63929734  0.08688580    -0.16600
C918        C  0.35516546  0.61064341  0.08304944    -0.14600
H919        H  0.35199800  0.55890050  0.08149501     0.20800
H920        H  0.44487872  0.64405481  0.10653616     0.16800
H921        H  0.46301294  0.60731871  0.11155680     0.19400
H922        H  0.33381127  0.59502137  0.07707461     0.12700
C923        C  0.37682002  0.77561869  0.07655702     0.16600
C924        C  0.38418880  0.80354391  0.07059020    -0.32500
C925        C  0.40441198  0.82518168  0.08838400     0.21000
C926        C  0.41663171  0.81912280  0.11097680     0.03200
C927        C  0.40970434  0.79145908  0.11653959    -0.22200
C928        C  0.38963447  0.76998433  0.09887793     0.12300
S929        S  0.35176478  0.74594578  0.05878068    -0.05900
C930        C  0.35912815  0.72602379  0.08152008    -0.09300
C931        C  0.37983944  0.74179828  0.10160874    -0.25900
S932        S  0.43926066  0.84757991  0.13125009    -0.03100
C933        C  0.43261766  0.86829047  0.10914147    -0.16600
C934        C  0.41378386  0.85358702  0.08702127    -0.14600
H935        H  0.37425838  0.80813269  0.05322390     0.20800
H936        H  0.41921343  0.78679736  0.13426006     0.16800
H937        H  0.38692992  0.73295768  0.11786453     0.19400
H938        H  0.40660436  0.86295609  0.07146955     0.12700
C939        C  0.22382940  0.59711215  0.10317580     0.16600
C940        C  0.19839352  0.57636075  0.11513864    -0.32500
C941        C  0.17367574  0.57525818  0.10624832     0.21000
C942        C  0.17414649  0.59354475  0.08580384     0.03200
C943        C  0.19961371  0.61427828  0.07380502    -0.22200
C944        C  0.22444360  0.61585443  0.08322604     0.12300
S945        S  0.25612436  0.60247772  0.11184158    -0.05900
C946        C  0.27092312  0.63071920  0.08872286    -0.09300
C947        C  0.25138147  0.63528910  0.07500689    -0.25900
S948        S  0.14194950  0.58927753  0.07853907    -0.03100
C949        C  0.12783044  0.56320781  0.10396431    -0.16600
C950        C  0.14718640  0.55783239  0.11673700    -0.14600
H951        H  0.19796444  0.56206289  0.13118303     0.20800
H952        H  0.20011891  0.62898301  0.05823507     0.16800
H953        H  0.25658227  0.65188986  0.05971096     0.19400
H954        H  0.14229526  0.54253584  0.13346780     0.12700
C955        C  0.36728620  0.59850884  0.43637769     0.16600
C956        C  0.36951860  0.57485276  0.43138874    -0.32500
C957        C  0.39639775  0.57856284  0.43235265     0.21000
C958        C  0.42006984  0.60474210  0.43782435     0.03200
C959        C  0.41780260  0.62842740  0.44286128    -0.22200
C960        C  0.39081684  0.62462823  0.44208052     0.12300
S961        S  0.33658695  0.59825201  0.43605961    -0.05900
C962        C  0.35533017  0.63395746  0.44369193    -0.09300
C963        C  0.38418041  0.64497823  0.44645357    -0.25900
S964        S  0.45073439  0.60471625  0.43830322    -0.03100
C965        C  0.43135483  0.56897070  0.43155545    -0.16600
C966        C  0.40273487  0.55794404  0.42870649    -0.14600
H967        H  0.35107037  0.55439970  0.42707880     0.20800
H968        H  0.43623050  0.64886849  0.44730115     0.16800
H969        H  0.39978247  0.66664532  0.45137716     0.19400
H970        H  0.38734554  0.53599021  0.42453996     0.12700
C971        C  0.39520250  0.77511934  0.43346596     0.16600
C972        C  0.41642457  0.80095215  0.42271981    -0.32500
C973        C  0.41761518  0.82546173  0.43224605     0.21000
C974        C  0.39889353  0.82446029  0.45215036     0.03200
C975        C  0.37756877  0.79848094  0.46299935    -0.22200
C976        C  0.37596602  0.77378683  0.45290640     0.12300
S977        S  0.39005293  0.74322739  0.42368250    -0.05900
C978        C  0.36125718  0.72743994  0.44563943    -0.09300
C979        C  0.35721666  0.74833887  0.95828719    -0.25900
S980        S  0.40363938  0.85679120  0.46019524    -0.03100
C981        C  0.43053553  0.87153186  0.43584901    -0.16600
C982        C  0.43573710  0.85229678  0.42285406    -0.14600
H983        H  0.43107198  0.80185799  0.40711077     0.20800
H984        H  0.36076531  0.79831898  0.97604671     0.16800
H985        H  0.33914297  0.74168701  0.97170443     0.19400
H986        H  0.45146149  0.85754427  0.40672454     0.12700
C987        C  0.21898430  0.60549785  0.42952677     0.16600
C988        C  0.19256332  0.58568288  0.41822715    -0.32500
C989        C  0.16897197  0.58491165  0.42957448     0.21000
C990        C  0.17142442  0.60261265  0.45168391     0.03200
C991        C  0.19794719  0.62252294  0.46299040    -0.22200
C992        C  0.22168278  0.62376835  0.45114769     0.12300
S993        S  0.25167289  0.61199944  0.91754699    -0.05900
C994        C  0.26714177  0.63697494  0.44266162    -0.09300
C995        C  0.24935781  0.64213910  0.45859470    -0.25900
S996        S  0.14009477  0.59857166  0.46198860    -0.03100
C997        C  0.12375394  0.57342235  0.43563254    -0.16600
C998        C  0.14174395  0.56821418  0.42025801    -0.14600
H999        H  0.19225647  0.57385502  0.90111373     0.20800
H1000       H  0.20001978  0.63671484  0.47992069     0.16800
H1001       H  0.25627499  0.65810513  0.47503091     0.19400
H1002       H  0.13530700  0.55347653  0.40265420     0.12700
C1003       C  0.34137582  0.65082419  0.44601570     0.03800
C1004       C  0.31189387  0.63720171  0.44545190    -0.12400
C1005       C  0.29815450  0.65243866  0.44618203     0.01300
C1006       C  0.31422126  0.68204878  0.44808759    -0.10900
C1007       C  0.34378839  0.69625495  0.44801404     0.03700
C1008       C  0.35702873  0.68045688  0.44729115    -0.10300
H1009       H  0.29924083  0.61446454  0.44426186     0.09300
H1010       H  0.30379715  0.69399380  0.44773934     0.06900
H1011       H  0.37968644  0.69161564  0.44703068     0.06700
C1012       C  0.34497973  0.64711200  0.58593891     0.03800
C1013       C  0.31534864  0.63063086  0.58587442    -0.12400
C1014       C  0.29886167  0.64308629  0.58610286     0.01300
C1015       C  0.31223620  0.67264147  0.58591754    -0.10900
C1016       C  0.34170974  0.68974287  0.58648918     0.03700
C1017       C  0.35782720  0.67676838  0.58644392    -0.10300
H1018       H  0.30467028  0.60791383  0.58542306     0.09300
H1019       H  0.29966477  0.68235518  0.58670795     0.06900
H1020       H  0.38047984  0.68998080  0.58668924     0.06700
C1021       C  0.15662147  0.84046962  0.78452356     0.03800
C1022       C  0.17941020  0.86266878  0.79940772    -0.12400
C1023       C  0.18837606  0.85795832  0.82581615     0.01300
C1024       C  0.17166357  0.83209752  0.83969241    -0.10900
C1025       C  0.14710792  0.81076142  0.82650649     0.03700
C1026       C  0.13918409  0.81565045  0.79970261    -0.10300
H1027       H  0.19221994  0.88288458  0.78927197     0.09300
H1028       H  0.17906902  0.82757379  0.85921920     0.06900
H1029       H  0.12082271  0.79839506  0.78969567     0.06700
C1030       C  0.15641854  0.83934380  0.75245073     0.03800
C1031       C  0.13361736  0.81709992  0.73750303    -0.12400
C1032       C  0.13764436  0.80712165  0.71154835     0.01300
C1033       C  0.16369676  0.82274478  0.69782652    -0.10900
C1034       C  0.18593436  0.84674728  0.71105477     0.03700
C1035       C  0.18191827  0.85505314  0.73786319    -0.10300
H1036       H  0.11318093  0.80541540  0.74718855     0.09300
H1037       H  0.16755906  0.81482428  0.67841801     0.06900
H1038       H  0.20010813  0.87232477  0.74822826     0.06700
C1039       C  0.04652793  0.95454846  0.86906007     0.43100
N1040       N  0.01345425  0.96360160  0.86658488     0.02000
C1041       C  0.02760778  0.59951922  0.89781393    -0.05900
H1042       H  0.07453959  0.57073439  0.96483148     0.07500
C1043       C  0.47414368  0.98051792  0.98841493    -0.06300
Co1044     Co  0.03119585  0.53129453  0.86690314     0.74200
N1045       N  0.05059485  0.54925995  0.92695636    -0.25400
Co1046     Co  0.01169034  0.54555348  0.93150561     0.74100
C1047       C  0.49876996  0.99690156  0.50497997     0.43200
N1048       N  0.45086213  0.94536318  0.92373645     0.01600
N1049       N  0.50235766  0.51605543  0.96532981     0.01100
N1050       N  0.03986568  0.58983102  0.85541225    -0.46300
H1051       H  0.08061152  0.00158087  0.87103191     0.07500
N1052       N  0.05772275  0.54335544  0.90242320     0.02000
N1053       N  0.47568786  0.54065253  0.93217672     0.01700
C1054       C  0.44369071  0.55099677  0.93526360     0.43300
N1055       N  0.45912131  0.94025105  0.89945578    -0.24900
C1056       C  0.01125818  0.52995874  0.80414551    -0.05800
N1057       N  0.01832268  0.94254772  0.86685655    -0.46000
N1058       N  0.47166933  0.56205170  0.93483871    -0.46200
C1059       C  0.49403947  0.50288141  0.78752258     0.43100
N1060       N  0.02951816  0.56784166  0.87262448     0.02000
N1061       N  0.43202207  0.96570542  0.86873301    -0.24900
N1062       N  0.03684649  0.98852937  0.86803949    -0.25400
N1063       N  0.42442115  0.97126850  0.89328815     0.01600
H1064       H  0.41057605  0.95092912  0.82821084     0.07500
H1065       H  0.40843750  0.50417844  0.93274158     0.07500
N1066       N  0.02251581  0.57318261  0.89763878    -0.25500
N1067       N  0.47737125  0.99394831  0.96378781    -0.25100
N1068       N  0.48171180  0.99462038  0.82995050     0.02000
C1069       C  0.09574154  0.56241138  0.92737919     0.43400
C1070       C  0.45564420  0.91450996  0.90055782    -0.06300
N1071       N  0.45203469  0.51601665  0.93097418    -0.25100
H1072       H  0.45603575  0.96049711  0.99426386     0.07500
N1073       N  0.08451004  0.55098153  0.90177197    -0.46300
H1074       H  0.45902148  0.90393099  0.88311394     0.07500
C1075       C  0.38904671  0.95870852  0.86577384     0.43200
C1076       C  0.05879113  0.98492996  0.86963527    -0.05800
Co1077     Co  0.47039480  0.96747496  0.86489985     0.73800
N1078       N  0.44076776  0.92370607  0.94149100    -0.46000
C1079       C  0.03903324  0.61044971  0.86982901     0.43500
N1080       N  0.47052783  0.98733241  0.80397473    -0.46000
Co1081     Co  0.45009025  0.98222527  0.92920117     0.73900
C1082       C  0.43046043  0.52038059  0.93270614    -0.06300
C1083       C  0.07335051  0.56157858  0.94416508    -0.05900
N1084       N  0.00526713  0.51895831  0.83051771    -0.25400
N1085       N  0.01392308  0.52031264  0.98873316    -0.46200
H1086       H  0.02572199  0.61026911  0.91607818     0.07500
C1087       C  0.41097866  0.95780461  0.84983706    -0.06300
Cl1088     Cl  0.49451375  0.50312247  0.89850303    -0.49300
C1089       C  0.44353250  0.90360333  0.92842963     0.43200
H1090       H  0.03070318  0.54860057  0.79800603     0.07400
N1091       N  0.39873393  0.96694502  0.89253852    -0.46000
C1092       C  0.09615952  0.55042926  0.61361558     0.43100
N1093       N  0.05472623  0.54360250  0.61872228     0.02000
C1094       C  0.46631952  0.98238467  0.73725413    -0.05900
H1095       H  0.49246971  0.91715138  0.67920286     0.07500
C1096       C  0.43972016  0.91681094  0.59839067    -0.06300
Co1097     Co  0.03320663  0.52415615  0.67786389     0.74200
N1098       N  0.01219697  0.95537456  0.67579347    -0.25400
Co1099     Co  0.46675958  0.96015366  0.67572347     0.74100
C1100       C  0.44007520  0.89505363  0.61587349     0.43200
N1101       N  0.48240306  0.99053565  0.57738806     0.01600
N1102       N  0.45594115  0.93308804  0.64060613     0.01700
N1103       N  0.01065565  0.52362099  0.73768888    -0.46300
H1104       H  0.09688539  0.53599153  0.65939398     0.07500
N1105       N  0.03658008  0.97936541  0.67704611     0.02000
N1106       N  0.42963851  0.96039979  0.66844714     0.01700
C1107       C  0.38661632  0.94961297  0.66993104     0.43300
N1108       N  0.00559804  0.51638153  0.57817807    -0.24900
C1109       C  0.04107282  0.58363098  0.69200120    -0.05800
N1110       N  0.07576818  0.55286682  0.60047802    -0.46000
N1111       N  0.40733478  0.94945596  0.68507902    -0.46200
C1112       C  0.03937738  0.60514497  0.67541027     0.43100
N1113       N  0.00526550  0.51149588  0.71215105     0.02000
N1114       N  0.48192919  0.53931038  0.61428089    -0.24900
N1115       N  0.06049163  0.53612631  0.64335343    -0.25400
N1116       N  0.45784381  0.51504393  0.61332414     0.01600
H1117       H  0.49255368  0.58251230  0.61011773     0.07500
H1118       H  0.38735624  0.96282746  0.62332380     0.07500
N1119       N  0.47815371  0.98713022  0.71137442    -0.25500
N1120       N  0.45017983  0.93967485  0.61548410    -0.25100
N1121       N  0.02777820  0.56927001  0.64875734     0.02000
C1122       C  0.04753020  0.94752820  0.67657574     0.43400
C1123       C  0.01750092  0.52185723  0.55248518    -0.06300
N1124       N  0.42448231  0.96708784  0.64302159    -0.25100
H1125       H  0.43153024  0.91518554  0.57704098     0.07500
N1126       N  0.05825251  0.97562059  0.67784426    -0.46300
H1127       H  0.03610276  0.54136909  0.54637612     0.07500
C1128       C  0.44633021  0.54623426  0.60793451     0.43200
C1129       C  0.08608870  0.53942339  0.64204367    -0.05800
Co1130     Co  0.01705551  0.54310833  0.61325339     0.73800
N1131       N  0.47770852  0.97873683  0.55188125    -0.46000
C1132       C  0.49439454  0.50032830  0.75619434     0.43500
N1133       N  0.03126391  0.59476142  0.64883842    -0.46000
Co1134     Co  0.45283402  0.97849636  0.60978764     0.73900
C1135       C  0.39794958  0.96129931  0.64204159    -0.06300
C1136       C  0.01698964  0.93402073  0.67540600    -0.05900
N1137       N  0.03368423  0.56223719  0.67360123    -0.25400
N1138       N  0.45022656  0.90675998  0.64167741    -0.46200
H1139       H  0.44740093  0.96329425  0.74361491     0.07500
C1140       C  0.47681582  0.56031208  0.61105862    -0.06300
Cl1141     Cl  0.49757727  0.49841456  0.64684672    -0.49300
C1142       C  0.50034748  0.99581672  0.53595543     0.43200
H1143       H  0.04808621  0.58458097  0.71375193     0.07400
N1144       N  0.43600712  0.51822576  0.60949509    -0.46000
C1145       C  0.09192645  0.73221507  0.67984808     0.16600
C1146       C  0.08015175  0.70793268  0.66267503    -0.32500
C1147       C  0.06775053  0.68163872  0.67633441     0.21000
C1148       C  0.06675416  0.67954495  0.70576471     0.03200
C1149       C  0.07759761  0.70374766  0.72288247    -0.22200
C1150       C  0.09033165  0.73001845  0.70923374     0.12300
S1151       S  0.11127897  0.76616977  0.66770552    -0.05900
C1152       C  0.11716523  0.77760100  0.70263808    -0.09300
C1153       C  0.10433623  0.75585454  0.72232446    -0.25900
S1154       S  0.05351843  0.64599633  0.71823619    -0.03100
C1155       C  0.04917095  0.63460554  0.68343409    -0.16600
C1156       C  0.05722729  0.65584562  0.66342773    -0.14600
H1157       H  0.08172874  0.70950728  0.63971048     0.20800
H1158       H  0.07726013  0.70225314  0.74587837     0.16800
H1159       H  0.10675375  0.75864238  0.74519770     0.19400
H1160       H  0.05663672  0.65274923  0.64061103     0.12700
C1161       C  0.25912507  0.88656175  0.67676730     0.16600
C1162       C  0.28281889  0.90299374  0.65985968    -0.32500
C1163       C  0.30941839  0.91239341  0.67214245     0.21000
C1164       C  0.31227102  0.90544999  0.69983040     0.03200
C1165       C  0.28869124  0.88904156  0.71662069    -0.22200
C1166       C  0.26224476  0.87997809  0.70450471     0.12300
S1167       S  0.22488581  0.87386350  0.66660705    -0.05900
C1168       C  0.21498010  0.86016938  0.70033076    -0.09300
C1169       C  0.23712909  0.86483720  0.71798757    -0.25900
S1170       S  0.34614008  0.91860740  0.71088725    -0.03100
C1171       C  0.35679466  0.93391854  0.67796274    -0.16600
C1172       C  0.33499826  0.92886459  0.65947741    -0.14600
H1173       H  0.28065173  0.90849559  0.63824585     0.20800
H1174       H  0.29087154  0.88383463  0.73835860     0.16800
H1175       H  0.23496350  0.85797709  0.73991581     0.19400
H1176       H  0.33765618  0.93651970  0.63783706     0.12700
C1177       C  0.12769609  0.91628878  0.72454885     0.16600
C1178       C  0.12588328  0.93775188  0.71078996    -0.32500
C1179       C  0.10067736  0.93018091  0.69649204     0.21000
C1180       C  0.07936318  0.90221384  0.69364134     0.03200
C1181       C  0.08228656  0.88057002  0.70524255    -0.22200
C1182       C  0.10631391  0.88836324  0.72190480     0.12300
S1183       S  0.15023472  0.92249461  0.75215500    -0.05900
C1184       C  0.12801574  0.88814152  0.76313182    -0.09300
C1185       C  0.10786913  0.87176731  0.74260753    -0.25900
S1186       S  0.04836099  0.89761133  0.68102624    -0.03100
C1187       C  0.06392182  0.93371917  0.68060621    -0.16600
C1188       C  0.09206947  0.94836099  0.68848686    -0.14600
H1189       H  0.14155637  0.95967923  0.71465968     0.20800
H1190       H  0.06479807  0.85901410  0.70489417     0.16800
H1191       H  0.09105161  0.85025189  0.74603412     0.19400
H1192       H  0.10476803  0.97103812  0.69086297     0.12700
C1193       C  0.08151468  0.68405528  0.83829588     0.16600
C1194       C  0.09613062  0.70725759  0.82052782    -0.32500
C1195       C  0.10912827  0.73397687  0.83307687     0.21000
C1196       C  0.10815632  0.73778018  0.86209723     0.03200
C1197       C  0.09362712  0.71442493  0.88004828    -0.22200
C1198       C  0.08013703  0.68753676  0.86735695     0.12300
S1199       S  0.06426470  0.64996326  0.82684742    -0.05900
C1200       C  0.05470169  0.64012233  0.86149845    -0.09300
C1201       C  0.06454106  0.66222875  0.88084206    -0.25900
S1202       S  0.12505585  0.77242961  0.87256683    -0.03100
C1203       C  0.13259107  0.78153575  0.83725772    -0.16600
C1204       C  0.12329602  0.75878622  0.81890480    -0.14600
H1205       H  0.09705992  0.70462023  0.79779468     0.20800
H1206       H  0.09253573  0.71707407  0.90275055     0.16800
H1207       H  0.06099772  0.65992173  0.90357007     0.19400
H1208       H  0.12652738  0.76024919  0.79611717     0.12700
C1209       C  0.26255335  0.90116183  0.85878040     0.16600
C1210       C  0.28643987  0.91311510  0.87644909    -0.32500
C1211       C  0.31274876  0.92612694  0.86328841     0.21000
C1212       C  0.31525265  0.92715222  0.83389706     0.03200
C1213       C  0.29141876  0.91568854  0.81626963    -0.22200
C1214       C  0.26515323  0.90276240  0.82942894     0.12300
S1215       S  0.22862297  0.88246051  0.87033838    -0.05900
C1216       C  0.21782333  0.87713625  0.83517463    -0.09300
C1217       C  0.23968909  0.88927807  0.81584396    -0.25900
S1218       S  0.34892060  0.94203026  0.82210356    -0.03100
C1219       C  0.35970257  0.94716608  0.85715076    -0.16600
C1220       C  0.33828649  0.93795106  0.87675173    -0.14600
H1221       H  0.28460303  0.91175454  0.89939065     0.20800
H1222       H  0.29322050  0.91621355  0.79332563     0.16800
H1223       H  0.23719339  0.88706911  0.79293698     0.19400
H1224       H  0.34118330  0.93892924  0.89964087     0.12700
C1225       C  0.09725370  0.92844758  0.85789539     0.16600
C1226       C  0.12076658  0.92799582  0.84828893    -0.32500
C1227       C  0.11597035  0.90437470  0.83262157     0.21000
C1228       C  0.08916179  0.88113696  0.82911929     0.03200
C1229       C  0.06578760  0.88074142  0.84061331    -0.22200
C1230       C  0.07033697  0.90543351  0.85385629     0.12300
S1231       S  0.09834249  0.95814835  0.86928464    -0.05900
C1232       C  0.06220230  0.93985804  0.86730243    -0.09300
C1233       C  0.05004900  0.91174676  0.85971749    -0.25900
S1234       S  0.08656959  0.85840848  0.80330845    -0.03100
C1235       C  0.12084343  0.88260637  0.79392530    -0.16600
C1236       C  0.13460817  0.90427065  0.81380831    -0.14600
H1237       H  0.14146918  0.94677753  0.84945218     0.20800
H1238       H  0.04471020  0.86354199  0.83591983     0.16800
H1239       H  0.02778354  0.89750852  0.85604182     0.19400
H1240       H  0.15551178  0.92236569  0.81098268     0.12700
C1241       C  0.39303788  0.56983448  0.59620196     0.16600
C1242       C  0.36891144  0.57176106  0.59446079    -0.32500
C1243       C  0.37255088  0.59851469  0.59017533     0.21000
C1244       C  0.39897370  0.62222014  0.58712824     0.03200
C1245       C  0.42316847  0.62029346  0.58856152    -0.22200
C1246       C  0.41956841  0.59360927  0.59349943     0.12300
S1247       S  0.39303582  0.53952239  0.60280061    -0.05900
C1248       C  0.42919658  0.55907444  0.60246963    -0.09300
C1249       C  0.44044531  0.58755735  0.59707869    -0.25900
S1250       S  0.39874130  0.65273905  0.58310692    -0.03100
C1251       C  0.36248408  0.63360630  0.58607584    -0.16600
C1252       C  0.35169746  0.60477936  0.58954212    -0.14600
H1253       H  0.34819360  0.55327760  0.59704018     0.20800
H1254       H  0.44391398  0.63888206  0.58664353     0.16800
H1255       H  0.46268654  0.60307434  0.59614308     0.19400
H1256       H  0.32982257  0.58889636  0.59234605     0.12700
C1257       C  0.36934811  0.77003574  0.58472237     0.16600
C1258       C  0.37375941  0.79716741  0.58025301    -0.32500
C1259       C  0.39714474  0.82015167  0.59370311     0.21000
C1260       C  0.41504797  0.81610341  0.61105460     0.03200
C1261       C  0.41086951  0.78911090  0.61515096    -0.22200
C1262       C  0.38772378  0.76624836  0.60152551     0.12300
S1263       S  0.34186280  0.73928954  0.57115145    -0.05900
C1264       C  0.35550525  0.72108244  0.58787862    -0.09300
C1265       C  0.38007147  0.73839206  0.60324487    -0.25900
S1266       S  0.44106626  0.84613307  0.62702417    -0.03100
C1267       C  0.42823961  0.86470456  0.60985537    -0.16600
C1268       C  0.40484883  0.84816109  0.59260909    -0.14600
H1269       H  0.35944543  0.80018395  0.56710904     0.20800
H1270       H  0.42490708  0.78602385  0.62868159     0.16800
H1271       H  0.39145493  0.73095188  0.61561147     0.19400
H1272       H  0.39347389  0.85599785  0.58085381     0.12700
C1273       C  0.22003366  0.59162222  0.60079841     0.16600
C1274       C  0.19415440  0.57099423  0.61204895    -0.32500
C1275       C  0.17017850  0.57181265  0.60419683     0.21000
C1276       C  0.17170000  0.59171306  0.58521830     0.03200
C1277       C  0.19760802  0.61229842  0.57386978    -0.22200
C1278       C  0.22175157  0.61204667  0.58246086     0.12300
S1279       S  0.25169349  0.59519190  0.60905313    -0.05900
C1280       C  0.26774182  0.62509650  0.58823725    -0.09300
C1281       C  0.24905026  0.63136540  0.57528421    -0.25900
S1282       S  0.14028170  0.58967141  0.57920722    -0.03100
C1283       C  0.12518257  0.56244024  0.60334233    -0.16600
C1284       C  0.14358555  0.55502633  0.61467987    -0.14600
H1285       H  0.19289031  0.55547277  0.62701137     0.20800
H1286       H  0.19900599  0.62837009  0.55962280     0.16800
H1287       H  0.25512917  0.64930314  0.56155397     0.19400
H1288       H  0.13799598  0.53877380  0.63051515     0.12700
C1289       C  0.36749930  0.59917644  0.93865033     0.16600
C1290       C  0.36923491  0.57499412  0.93541846    -0.32500
C1291       C  0.39582489  0.57811259  0.93794677     0.21000
C1292       C  0.41963384  0.60418364  0.94344212     0.03200
C1293       C  0.41782693  0.62832412  0.94692779    -0.22200
C1294       C  0.39118842  0.62517509  0.94437058     0.12300
S1295       S  0.33731182  0.59981466  0.93593395    -0.05900
C1296       C  0.35649989  0.63570195  0.94274530    -0.09300
C1297       C  0.38510544  0.64613513  0.94683538    -0.25900
S1298       S  0.45003380  0.60369918  0.94489638    -0.03100
C1299       C  0.43045888  0.56798167  0.93811805    -0.16600
C1300       C  0.40187522  0.55718492  0.93504037    -0.14600
H1301       H  0.35068403  0.55466599  0.93093246     0.20800
H1302       H  0.43639666  0.64869705  0.95121631     0.16800
H1303       H  0.40088431  0.66779162  0.95157332     0.19400
H1304       H  0.38642080  0.53533501  0.93047628     0.12700
C1305       C  0.39751854  0.77828995  0.93440317     0.16600
C1306       C  0.41889805  0.80455721  0.92480830    -0.32500
C1307       C  0.41869314  0.82844713  0.93394922     0.21000
C1308       C  0.39845735  0.82649677  0.95238158     0.03200
C1309       C  0.37697199  0.80007648  0.96209096    -0.22200
C1310       C  0.37683652  0.77600441  0.95238562     0.12300
S1311       S  0.39384136  0.74696726  0.92472759    -0.05900
C1312       C  0.36373412  0.73016096  0.94474175    -0.09300
C1313       C  0.35619467  0.74636332  0.45983738    -0.25900
S1314       S  0.40164241  0.85825505  0.95996437    -0.03100
C1315       C  0.42995241  0.87394207  0.93734869    -0.16600
C1316       C  0.43674040  0.85550120  0.92532127    -0.14600
H1317       H  0.43470399  0.80625555  0.91028958     0.20800
H1318       H  0.36256078  0.79752713  0.47815559     0.16800
H1319       H  0.33912743  0.74039698  0.47449792     0.19400
H1320       H  0.45347947  0.86144693  0.91023051     0.12700
C1321       C  0.22120696  0.61004464  0.92668357     0.16600
C1322       C  0.19468453  0.58965739  0.91628969    -0.32500
C1323       C  0.17142359  0.59021376  0.92641913     0.21000
C1324       C  0.17425795  0.61010715  0.94616619     0.03200
C1325       C  0.20099232  0.63093599  0.95625026    -0.22200
C1326       C  0.22440504  0.63042550  0.94598277     0.12300
S1327       S  0.25001800  0.60984184  0.41830315    -0.05900
C1328       C  0.26936214  0.64085652  0.93977121    -0.09300
C1329       C  0.25213963  0.64845223  0.95337051    -0.25900
S1330       S  0.14294974  0.60635363  0.95617743    -0.03100
C1331       C  0.12618940  0.57795958  0.93319837    -0.16600
C1332       C  0.14403820  0.57198884  0.91873224    -0.14600
H1333       H  0.19052361  0.57176519  0.40100573     0.20800
H1334       H  0.20341223  0.64664048  0.97154436     0.16800
H1335       H  0.25943201  0.66577922  0.96828627     0.19400
H1336       H  0.13727587  0.55510912  0.90333795     0.12700
C1337       C  0.84264287  0.15167984  0.95255828     0.03800
C1338       C  0.81313160  0.13796462  0.95216777    -0.12400
C1339       C  0.79928072  0.15310874  0.95176896     0.01300
C1340       C  0.81523659  0.18269907  0.95276221    -0.10900
C1341       C  0.84473988  0.19699266  0.95269832     0.03700
C1342       C  0.85821541  0.18139268  0.95280041    -0.10300
H1343       H  0.80053874  0.11521883  0.95154024     0.09300
H1344       H  0.80478580  0.19459657  0.95152176     0.06900
H1345       H  0.88088815  0.19273817  0.95273554     0.06700
C1346       C  0.84629009  0.14917005  0.10243464     0.03800
C1347       C  0.81670574  0.13325655  0.10297563    -0.12400
C1348       C  0.80070175  0.14614029  0.09984983     0.01300
C1349       C  0.81461087  0.17550715  0.09636512    -0.10900
C1350       C  0.84404247  0.19195854  0.09646025     0.03700
C1351       C  0.85961731  0.17863111  0.09934454    -0.10300
H1352       H  0.80583601  0.11070629  0.10563054     0.09300
H1353       H  0.80257955  0.18576804  0.09482982     0.06900
H1354       H  0.88227576  0.19146085  0.09876707     0.06700
C1355       C  0.65615447  0.34147236  0.28246542     0.03800
C1356       C  0.67756872  0.36406540  0.29814442    -0.12400
C1357       C  0.68583757  0.35960198  0.32506068     0.01300
C1358       C  0.66859752  0.33378506  0.33899146    -0.10900
C1359       C  0.64477864  0.31201989  0.32498282     0.03700
C1360       C  0.63850432  0.31634239  0.29712592    -0.10300
H1361       H  0.69036511  0.38426683  0.28799864     0.09300
H1362       H  0.67518652  0.32955431  0.35920632     0.06900
H1363       H  0.62143311  0.29856243  0.28609939     0.06700
C1364       C  0.65803514  0.34064300  0.25059309     0.03800
C1365       C  0.63580361  0.31917583  0.23452639    -0.12400
C1366       C  0.64094411  0.30932585  0.20911194     0.01300
C1367       C  0.66779324  0.32432396  0.19697932    -0.10900
C1368       C  0.68978357  0.34756355  0.21139467     0.03700
C1369       C  0.68456104  0.35575262  0.23773683    -0.10300
H1370       H  0.61488257  0.30767363  0.24324822     0.09300
H1371       H  0.67226719  0.31630969  0.17800832     0.06900
H1372       H  0.70219947  0.37252200  0.24913348     0.06700
C1373       C  0.54985942  0.45698157  0.37286461     0.43100
N1374       N  0.51635635  0.46537045  0.37096038     0.02000
C1375       C  0.52769407  0.09980981  0.39788730    -0.05900
H1376       H  0.57331980  0.06933324  0.46834934     0.07500
C1377       C  0.97156100  0.47970674  0.48600105    -0.06300
Co1378     Co  0.53391216  0.03252613  0.36835390     0.74200
N1379       N  0.55139262  0.05021217  0.42886054    -0.25400
Co1380     Co  0.51217588  0.04579248  0.43207589     0.74100
C1381       C  0.99829490  0.49687857  0.00431810     0.43200
N1382       N  0.94909885  0.44531585  0.41971595     0.01600
N1383       N  0.00246497  0.01707136  0.46476730     0.01100
N1384       N  0.54154603  0.09070080  0.35619645    -0.46300
H1385       H  0.58349652  0.50424293  0.37359557     0.07500
N1386       N  0.55948467  0.04485323  0.40462644     0.02000
N1387       N  0.97718574  0.04263375  0.43045564     0.01700
C1388       C  0.94552301  0.05367619  0.43138855     0.43300
N1389       N  0.95726136  0.44065753  0.39513532    -0.24900
C1390       C  0.51371030  0.03092636  0.30553164    -0.05800
N1391       N  0.52162228  0.44462092  0.37131109    -0.46000
N1392       N  0.97351159  0.06438450  0.43174217    -0.46200
C1393       C  0.99574336  0.00208350  0.28742157     0.43100
N1394       N  0.53121104  0.06867319  0.37342449     0.02000
N1395       N  0.93083256  0.46710941  0.36521273    -0.24900
N1396       N  0.53950424  0.49055366  0.37166379    -0.25400
N1397       N  0.92309972  0.47199204  0.39003893     0.01600
H1398       H  0.90909890  0.45247379  0.32475570     0.07500
H1399       H  0.90988565  0.00705828  0.42937106     0.07500
N1400       N  0.52329854  0.07366769  0.39808069    -0.25500
N1401       N  0.97535217  0.49326335  0.46127791    -0.25100
N1402       N  0.98171522  0.49716656  0.32744941     0.02000
C1403       C  0.59599841  0.06200925  0.43163989     0.43400
C1404       C  0.95287574  0.41452279  0.39513228    -0.06300
N1405       N  0.95329167  0.01824695  0.42928986    -0.25100
H1406       H  0.95323266  0.45974951  0.49159194     0.07500
N1407       N  0.58604298  0.05171132  0.40535964    -0.46300
H1408       H  0.95592311  0.40423788  0.37717518     0.07500
C1409       C  0.88737963  0.45927716  0.36287694     0.43200
C1410       C  0.56174047  0.48735777  0.37292447    -0.05800
Co1411     Co  0.96939518  0.46902100  0.36153762     0.73800
N1412       N  0.93822512  0.42300353  0.43662732    -0.46000
C1413       C  0.53976476  0.11106333  0.37009958     0.43500
N1414       N  0.97151789  0.49020939  0.30113172    -0.46000
Co1415     Co  0.94854865  0.48220898  0.42610661     0.73900
C1416       C  0.93198435  0.02303293  0.42986301    -0.06300
C1417       C  0.57315136  0.06133465  0.44731486    -0.05900
N1418       N  0.50829336  0.01951051  0.33171363    -0.25400
N1419       N  0.51409972  0.02074898  0.48980911    -0.46200
H1420       H  0.52495184  0.11030954  0.41585260     0.07500
C1421       C  0.90956964  0.45914173  0.34648807    -0.06300
Cl1422     Cl  0.99526412  0.00365246  0.39837474    -0.49300
C1423       C  0.94029809  0.40288752  0.42265320     0.43200
H1424       H  0.53257737  0.05023007  0.29950229     0.07400
N1425       N  0.89723153  0.46720175  0.38963056    -0.46000
C1426       C  0.59731398  0.05174041  0.11522613     0.43100
N1427       N  0.55614833  0.04532525  0.12004309     0.02000
C1428       C  0.96999749  0.48435453  0.23550336    -0.05900
H1429       H  0.99521097  0.41716384  0.17635672     0.07500
C1430       C  0.94174163  0.41851215  0.09769688    -0.06300
Co1431     Co  0.53457192  0.02604835  0.17904158     0.74200
N1432       N  0.50878697  0.45783901  0.18016210    -0.25400
Co1433     Co  0.97029137  0.46119380  0.17491810     0.74100
C1434       C  0.94283677  0.39694214  0.11480976     0.43200
N1435       N  0.98343958  0.49208328  0.07705742     0.01600
N1436       N  0.95858803  0.43462357  0.13974513     0.01700
N1437       N  0.51243838  0.02539778  0.23899549    -0.46300
H1438       H  0.59779131  0.03731391  0.16103701     0.07500
N1439       N  0.53333493  0.48167770  0.18137381     0.02000
N1440       N  0.93333535  0.46196517  0.16922101     0.01700
C1441       C  0.89061927  0.45176332  0.17201243     0.43300
N1442       N  0.50771805  0.01803893  0.07945516    -0.24900
C1443       C  0.54328652  0.08585032  0.19244395    -0.05800
N1444       N  0.57723478  0.05449539  0.10190844    -0.46000
N1445       N  0.91147167  0.45120642  0.18644798    -0.46200
C1446       C  0.54194751  0.10735711  0.17552606     0.43100
N1447       N  0.50676772  0.01356935  0.21331054     0.02000
N1448       N  0.98214961  0.03875509  0.11438565    -0.24900
N1449       N  0.56170386  0.03775276  0.14470489    -0.25400
N1450       N  0.95759362  0.01500162  0.11312501     0.01600
H1451       H  0.99382690  0.08249355  0.11360415     0.07500
H1452       H  0.89044907  0.46529828  0.12572515     0.07500
N1453       N  0.98255858  0.48812961  0.21023998    -0.25500
N1454       N  0.95224703  0.44125666  0.11496511    -0.25100
N1455       N  0.52918507  0.07096899  0.14949255     0.02000
C1456       C  0.54371298  0.44945155  0.18105248     0.43400
C1457       C  0.52004478  0.02325235  0.05403446    -0.06300
N1458       N  0.92770398  0.46889040  0.14418841    -0.25100
H1459       H  0.93326990  0.41690448  0.07649094     0.07500
N1460       N  0.55480585  0.47760643  0.18215439    -0.46300
H1461       H  0.53872941  0.04270726  0.04795334     0.07500
C1462       C  0.94713295  0.04708334  0.11128353     0.43200
C1463       C  0.58713667  0.04079253  0.14357813    -0.05800
Co1464     Co  0.51870528  0.04486507  0.11416276     0.73800
N1465       N  0.97805857  0.47985426  0.05173041    -0.46000
C1466       C  0.99516779  0.99915201  0.25599453     0.43500
N1467       N  0.53330961  0.09668314  0.14916796    -0.46000
Co1468     Co  0.95501526  0.48021423  0.11026020     0.73900
C1469       C  0.90133562  0.46345404  0.14401276    -0.06300
C1470       C  0.51322981  0.43627169  0.17995509    -0.05900
N1471       N  0.53517774  0.06409662  0.17439472    -0.25400
N1472       N  0.95330605  0.40851459  0.14048974    -0.46200
H1473       H  0.95023444  0.46605360  0.24154580     0.07500
C1474       C  0.97771269  0.06038552  0.11330356    -0.06300
Cl1475     Cl  0.99533247  0.99582398  0.14605851    -0.49300
C1476       C  0.00036985  0.49651529  0.03529606     0.43200
H1477       H  0.55078566  0.08709392  0.21404156     0.07400
N1478       N  0.93618464  0.01902129  0.11126866    -0.46000
C1479       C  0.59580626  0.23445350  0.17780314     0.16600
C1480       C  0.58366637  0.20995520  0.16094102    -0.32500
C1481       C  0.57170094  0.18388953  0.17501073     0.21000
C1482       C  0.57164454  0.18225858  0.20447650     0.03200
C1483       C  0.58290653  0.20660983  0.22124658    -0.22200
C1484       C  0.59498058  0.23256883  0.20723276     0.12300
S1485       S  0.61451893  0.26832887  0.16527947    -0.05900
C1486       C  0.62085094  0.27990575  0.20015928    -0.09300
C1487       C  0.60886737  0.25839952  0.22005029    -0.25900
S1488       S  0.55857313  0.14902393  0.21752726    -0.03100
C1489       C  0.55278930  0.13704054  0.18294807    -0.16600
C1490       C  0.56046905  0.15786175  0.16253703    -0.14600
H1491       H  0.58447537  0.21118354  0.13792392     0.20800
H1492       H  0.58320837  0.20545744  0.24425837     0.16800
H1493       H  0.61177127  0.26142302  0.24288201     0.19400
H1494       H  0.55891277  0.15425927  0.13975354     0.12700
C1495       C  0.76342638  0.38496897  0.17811496     0.16600
C1496       C  0.78704049  0.39971788  0.16076585    -0.32500
C1497       C  0.81362913  0.41182840  0.17387336     0.21000
C1498       C  0.81664682  0.40893465  0.20279939     0.03200
C1499       C  0.79309695  0.39411150  0.22006716    -0.22200
C1500       C  0.76658336  0.38247705  0.20707444     0.12300
S1501       S  0.72920960  0.36980892  0.16685028    -0.05900
C1502       C  0.71920546  0.36082187  0.20172518    -0.09300
C1503       C  0.74140797  0.36851403  0.22061345    -0.25900
S1504       S  0.85064597  0.42487954  0.21459267    -0.03100
C1505       C  0.86095131  0.43594386  0.18026688    -0.16600
C1506       C  0.83903987  0.42748018  0.16084614    -0.14600
H1507       H  0.78480899  0.40205255  0.13816663     0.20800
H1508       H  0.79532973  0.39208939  0.24273570     0.16800
H1509       H  0.73930288  0.36448569  0.24329259     0.19400
H1510       H  0.84150885  0.43211500  0.13830187     0.12700
C1511       C  0.62362149  0.41582918  0.22424223     0.16600
C1512       C  0.62199928  0.43759156  0.21090737    -0.32500
C1513       C  0.59641116  0.43061029  0.19783008     0.21000
C1514       C  0.57447568  0.40284567  0.19561169     0.03200
C1515       C  0.57704808  0.38086546  0.20682420    -0.22200
C1516       C  0.60153530  0.38815073  0.22240884     0.12300
S1517       S  0.64725439  0.42163549  0.25057555    -0.05900
C1518       C  0.62478356  0.38760687  0.26232012    -0.09300
C1519       C  0.60334986  0.37146108  0.24282505    -0.25900
S1520       S  0.54340755  0.39900938  0.18444582    -0.03100
C1521       C  0.55974146  0.43517397  0.18398440    -0.16600
C1522       C  0.58817409  0.44928628  0.19064045    -0.14600
H1523       H  0.63829841  0.45939505  0.21426472     0.20800
H1524       H  0.55913857  0.35954392  0.20706921     0.16800
H1525       H  0.58622779  0.35023964  0.24690799     0.19400
H1526       H  0.60141788  0.47194520  0.19277163     0.12700
C1527       C  0.58199357  0.18510790  0.33830550     0.16600
C1528       C  0.59801293  0.20841826  0.32094067    -0.32500
C1529       C  0.60814936  0.23518672  0.33271258     0.21000
C1530       C  0.60287198  0.23893313  0.36062002     0.03200
C1531       C  0.58672918  0.21546670  0.37812966    -0.22200
C1532       C  0.57634701  0.18849305  0.36621952     0.12300
S1533       S  0.56829796  0.15097289  0.32782538    -0.05900
C1534       C  0.55457260  0.14083731  0.36134057    -0.09300
C1535       C  0.56039181  0.16301699  0.37955747    -0.25900
S1536       S  0.61720933  0.27364468  0.37029716    -0.03100
C1537       C  0.62978201  0.28283860  0.33611415    -0.16600
C1538       C  0.62359745  0.26008078  0.31875697    -0.14600
H1539       H  0.60235230  0.20580827  0.29910385     0.20800
H1540       H  0.58237935  0.21808454  0.39995388     0.16800
H1541       H  0.55389571  0.16069875  0.40153389     0.19400
H1542       H  0.62993785  0.26164691  0.29677726     0.12700
C1543       C  0.76050640  0.40256649  0.35777762     0.16600
C1544       C  0.78466515  0.41422795  0.37512481    -0.32500
C1545       C  0.81085246  0.42703081  0.36159445     0.21000
C1546       C  0.81296322  0.42819376  0.33217238     0.03200
C1547       C  0.78890099  0.41710586  0.31491424    -0.22200
C1548       C  0.76280097  0.40434062  0.32842256     0.12300
S1549       S  0.72656901  0.38387048  0.36960636    -0.05900
C1550       C  0.71539058  0.37876093  0.33453076    -0.09300
C1551       C  0.73721395  0.39104082  0.31510452    -0.25900
S1552       S  0.84645631  0.44275913  0.31982887    -0.03100
C1553       C  0.85780699  0.44763519  0.35468720    -0.16600
C1554       C  0.83661859  0.43851555  0.37462753    -0.14600
H1555       H  0.78311683  0.41274087  0.39809060     0.20800
H1556       H  0.79039644  0.41773032  0.29192907     0.16800
H1557       H  0.73466694  0.38898580  0.29220794     0.19400
H1558       H  0.83983460  0.43942136  0.39747147     0.12700
C1559       C  0.59981904  0.43053043  0.35850598     0.16600
C1560       C  0.62266179  0.42957274  0.34767090    -0.32500
C1561       C  0.61688430  0.40535687  0.33249952     0.21000
C1562       C  0.58988122  0.38214121  0.33053143     0.03200
C1563       C  0.56729080  0.38226318  0.34336309    -0.22200
C1564       C  0.57271435  0.40744092  0.35620266     0.12300
S1565       S  0.60167250  0.46071220  0.36957875    -0.05900
C1566       C  0.56552918  0.44239773  0.37002818    -0.09300
C1567       C  0.55290529  0.41403551  0.36329361    -0.25900
S1568       S  0.58570536  0.35867695  0.30479751    -0.03100
C1569       C  0.61940202  0.38250800  0.29346542    -0.16600
C1570       C  0.63438080  0.40453554  0.31270675    -0.14600
H1571       H  0.64341805  0.44831119  0.34754648     0.20800
H1572       H  0.54595785  0.36499813  0.33995943     0.16800
H1573       H  0.53046255  0.39969768  0.36111936     0.19400
H1574       H  0.65515061  0.42244523  0.30877486     0.12700
C1575       C  0.89375266  0.07122511  0.10776166     0.16600
C1576       C  0.86956599  0.07310791  0.10649142    -0.32500
C1577       C  0.87322610  0.10013479  0.10642721     0.21000
C1578       C  0.89972545  0.12410853  0.10766962     0.03200
C1579       C  0.92389881  0.12225598  0.10890936    -0.22200
C1580       C  0.92028983  0.09529774  0.10889097     0.12300
S1581       S  0.89386520  0.04050734  0.10811054    -0.05900
C1582       C  0.93004944  0.06031915  0.10982232    -0.09300
C1583       C  0.94123048  0.08918073  0.11002073    -0.25900
S1584       S  0.89973832  0.15481397  0.10711910    -0.03100
C1585       C  0.86343238  0.13545615  0.10487364    -0.16600
C1586       C  0.85238496  0.10639360  0.10484968    -0.14600
H1587       H  0.84881953  0.05433911  0.10551878     0.20800
H1588       H  0.94463695  0.14103347  0.10977674     0.16800
H1589       H  0.96344316  0.10485000  0.11107058     0.19400
H1590       H  0.83037531  0.09034072  0.10327712     0.12700
C1591       C  0.87337914  0.27175149  0.08703536     0.16600
C1592       C  0.87809872  0.29864818  0.08057861    -0.32500
C1593       C  0.90124860  0.32208396  0.09369088     0.21000
C1594       C  0.91876395  0.31869197  0.11233046     0.03200
C1595       C  0.91433509  0.29197975  0.11834517    -0.22200
C1596       C  0.89129607  0.26868802  0.10533482     0.12300
S1597       S  0.84567228  0.24046439  0.07487535    -0.05900
C1598       C  0.85853841  0.22314878  0.09458433    -0.09300
C1599       C  0.88308158  0.24103693  0.10955642    -0.25900
S1600       S  0.94432538  0.34905402  0.12786203    -0.03100
C1601       C  0.93171628  0.36687261  0.10896121    -0.16600
C1602       C  0.90882373  0.34993761  0.09137321    -0.14600
H1603       H  0.86403462  0.30113869  0.06647961     0.20800
H1604       H  0.92791539  0.28941113  0.13309405     0.16800
H1605       H  0.89388964  0.23417724  0.12363425     0.19400
H1606       H  0.89756540  0.35735867  0.07876267     0.12700
C1607       C  0.72127982  0.09486312  0.11022507     0.16600
C1608       C  0.69482496  0.07321421  0.11890666    -0.32500
C1609       C  0.67134533  0.07404902  0.10942638     0.21000
C1610       C  0.67389216  0.09512399  0.09150577     0.03200
C1611       C  0.70044472  0.11673523  0.08261143    -0.22200
C1612       C  0.72405551  0.11623694  0.09265762     0.12300
S1613       S  0.75226016  0.09810050  0.12049779    -0.05900
C1614       C  0.76953273  0.12886194  0.10111882    -0.09300
C1615       C  0.75169082  0.13585891  0.08740872    -0.25900
S1616       S  0.64273332  0.09304681  0.08382318    -0.03100
C1617       C  0.62646772  0.06412334  0.10580652    -0.16600
C1618       C  0.64422627  0.05618893  0.11756631    -0.14600
H1619       H  0.69267826  0.05679785  0.13312935     0.20800
H1620       H  0.70265752  0.13361924  0.06908385     0.16800
H1621       H  0.75848531  0.15420956  0.07410658     0.19400
H1622       H  0.63781678  0.03899844  0.13244191     0.12700
C1623       C  0.86797003  0.10007342  0.43970563     0.16600
C1624       C  0.87003083  0.07598872  0.43754200    -0.32500
C1625       C  0.89698382  0.07995360  0.43551342     0.21000
C1626       C  0.92080542  0.10670931  0.43548070     0.03200
C1627       C  0.91868241  0.13077501  0.43744455    -0.22200
C1628       C  0.89171772  0.12678258  0.43964793     0.12300
S1629       S  0.83735022  0.09977341  0.44286015    -0.05900
C1630       C  0.85651048  0.13626622  0.44419451    -0.09300
C1631       C  0.88539483  0.14753867  0.44216607    -0.25900
S1632       S  0.95160013  0.10703207  0.43342030    -0.03100
C1633       C  0.93220161  0.07072258  0.43268533    -0.16600
C1634       C  0.90338299  0.05919948  0.43381497    -0.14600
H1635       H  0.85145654  0.05507413  0.43768304     0.20800
H1636       H  0.93725398  0.15169191  0.43751637     0.16800
H1637       H  0.90131257  0.16967923  0.44248491     0.19400
H1638       H  0.88793318  0.03685217  0.43371230     0.12700
C1639       C  0.89447848  0.27743766  0.43152864     0.16600
C1640       C  0.91454663  0.30316244  0.41956988    -0.32500
C1641       C  0.91463950  0.32737926  0.42813938     0.21000
C1642       C  0.89589256  0.32620794  0.44812352     0.03200
C1643       C  0.87563768  0.30035473  0.46001374    -0.22200
C1644       C  0.87524486  0.27598023  0.45104909     0.12300
S1645       S  0.89075589  0.24578567  0.42327909    -0.05900
C1646       C  0.86253232  0.23001358  0.44595027    -0.09300
C1647       C  0.85673630  0.24694037  0.96367017    -0.25900
S1648       S  0.89959390  0.35818202  0.45550013    -0.03100
C1649       C  0.92625846  0.37303378  0.43097191    -0.16600
C1650       C  0.93196484  0.35410498  0.41813047    -0.14600
H1651       H  0.92926346  0.30420736  0.40396852     0.20800
H1652       H  0.86255711  0.29796558  0.98140783     0.16800
H1653       H  0.84075098  0.24108993  0.97963739     0.19400
H1654       H  0.94777684  0.35955317  0.40205030     0.12700
C1655       C  0.72098793  0.10936565  0.43283448     0.16600
C1656       C  0.69468998  0.08935385  0.42180525    -0.32500
C1657       C  0.67118553  0.08857918  0.43308157     0.21000
C1658       C  0.67349552  0.10669255  0.45469149     0.03200
C1659       C  0.70002682  0.12700483  0.46570809    -0.22200
C1660       C  0.72375486  0.12799468  0.45410041     0.12300
S1661       S  0.75129831  0.10836594  0.92575805    -0.05900
C1662       C  0.76893578  0.14026857  0.44592545    -0.09300
C1663       C  0.75145310  0.14614690  0.46154044    -0.25900
S1664       S  0.64191927  0.10213262  0.46494325    -0.03100
C1665       C  0.62592359  0.07606924  0.43934509    -0.16600
C1666       C  0.64410141  0.07111329  0.42421786    -0.14600
H1667       H  0.69215327  0.07005384  0.90753946     0.20800
H1668       H  0.70208757  0.14144106  0.48236736     0.16800
H1669       H  0.75857482  0.16237033  0.47773194     0.19400
H1670       H  0.63784943  0.05586771  0.40711603     0.12700
C1671       C  0.84282933  0.15339948  0.44685966     0.03800
C1672       C  0.81338808  0.13993673  0.44760786    -0.12400
C1673       C  0.79986105  0.15535944  0.44901933     0.01300
C1674       C  0.81600832  0.18488336  0.45034528    -0.10900
C1675       C  0.84546101  0.19894426  0.44899880     0.03700
C1676       C  0.85861380  0.18308575  0.44760095    -0.10300
H1677       H  0.80058591  0.11720222  0.44665029     0.09300
H1678       H  0.80560984  0.19685521  0.45033253     0.06900
H1679       H  0.88123347  0.19424716  0.44670715     0.06700
C1680       C  0.84553835  0.14854977  0.58901663     0.03800
C1681       C  0.81611679  0.13253183  0.59239650    -0.12400
C1682       C  0.79987273  0.14527062  0.59171822     0.01300
C1683       C  0.81326575  0.17458542  0.58795604    -0.10900
C1684       C  0.84261937  0.19129638  0.58570264     0.03700
C1685       C  0.85843029  0.17802111  0.58579286    -0.10300
H1686       H  0.80547183  0.11002396  0.59554710     0.09300
H1687       H  0.80091657  0.18455407  0.58837522     0.06900
H1688       H  0.88094620  0.19091752  0.58339249     0.06700
C1689       C  0.65672398  0.34008367  0.78366838     0.03800
C1690       C  0.67844723  0.36333961  0.79846105    -0.12400
C1691       C  0.68698644  0.36011076  0.82578346     0.01300
C1692       C  0.67013659  0.33483640  0.84066049    -0.10900
C1693       C  0.64648093  0.31239281  0.82729954     0.03700
C1694       C  0.63979382  0.31534607  0.79917971    -0.10300
H1695       H  0.69104537  0.38315440  0.78756931     0.09300
H1696       H  0.67696484  0.33146970  0.86117114     0.06900
H1697       H  0.62308303  0.29679897  0.78874413     0.06700
C1698       C  0.65717082  0.33841853  0.75173890     0.03800
C1699       C  0.63430484  0.31646162  0.73665642    -0.12400
C1700       C  0.63826995  0.30660680  0.71057413     0.01300
C1701       C  0.66446169  0.32197882  0.69707557    -0.10900
C1702       C  0.68695661  0.34541295  0.71072046     0.03700
C1703       C  0.68300999  0.35358463  0.73763516    -0.10300
H1704       H  0.61386955  0.30494060  0.74640800     0.09300
H1705       H  0.66822801  0.31412904  0.67755834     0.06900
H1706       H  0.70129863  0.37022598  0.74845299     0.06700
C1707       C  0.54789584  0.45754730  0.86627318     0.43100
N1708       N  0.51415293  0.46566703  0.86644190     0.02000
C1709       C  0.52670931  0.10069931  0.89692014    -0.05900
H1710       H  0.57400955  0.06986354  0.96582712     0.07500
C1711       C  0.97339960  0.47798654  0.98743662    -0.06300
Co1712     Co  0.53160426  0.03284962  0.86675420     0.74200
N1713       N  0.55088766  0.05090937  0.92685468    -0.25400
Co1714     Co  0.51195312  0.04729302  0.93143036     0.74100
C1715       C  0.99582547  0.49889972  0.50352222     0.43200
N1716       N  0.94893255  0.44355967  0.92228352     0.01600
N1717       N  0.00012295  0.01403581  0.96426842     0.01100
N1718       N  0.53967981  0.09118123  0.85491434    -0.46300
H1719       H  0.58129318  0.50483833  0.86790601     0.07500
N1720       N  0.55819026  0.04518739  0.90230891     0.02000
N1721       N  0.97520984  0.03979137  0.92970920     0.01700
C1722       C  0.94362472  0.05084393  0.93104834     0.43300
N1723       N  0.95682755  0.43854939  0.89772840    -0.24900
C1724       C  0.51010475  0.03028346  0.80412360    -0.05800
N1725       N  0.51957440  0.44500265  0.86539491    -0.46000
N1726       N  0.97156798  0.06151441  0.93137001    -0.46200
C1727       C  0.99534273  0.00154022  0.78657125     0.43100
N1728       N  0.52949224  0.06924938  0.87222786     0.02000
N1729       N  0.93098023  0.46550998  0.86777134    -0.24900
N1730       N  0.53726487  0.49085858  0.86747458    -0.25400
N1731       N  0.92346268  0.47080328  0.89253733     0.01600
H1732       H  0.90921714  0.45078713  0.82738619     0.07500
H1733       H  0.90792982  0.00420711  0.92865336     0.07500
N1734       N  0.52226614  0.07456683  0.89712334    -0.25500
N1735       N  0.97650466  0.49179674  0.96306940    -0.25100
N1736       N  0.98146681  0.49442131  0.82934657     0.02000
C1737       C  0.59534301  0.06171247  0.92836750     0.43400
C1738       C  0.95225686  0.41234990  0.89800556    -0.06300
N1739       N  0.95134606  0.01536828  0.92832389    -0.25100
H1740       H  0.95523679  0.45796999  0.99319539     0.07500
N1741       N  0.58460860  0.05143894  0.90228383    -0.46300
H1742       H  0.95516337  0.40185274  0.88015576     0.07500
C1743       C  0.88785601  0.45833033  0.86530241     0.43200
C1744       C  0.55958087  0.48784008  0.86747761    -0.05800
Co1745     Co  0.96908261  0.46662007  0.86385349     0.73800
N1746       N  0.93814280  0.42144746  0.93949731    -0.46000
C1747       C  0.53828178  0.11170232  0.86894605     0.43500
N1748       N  0.97098369  0.48762206  0.80307511    -0.46000
Co1749     Co  0.94910994  0.48088000  0.92851489     0.73900
C1750       C  0.93003259  0.02016493  0.92913535    -0.06300
C1751       C  0.57311711  0.06169700  0.94469696    -0.05900
N1752       N  0.50509714  0.01956252  0.83062291    -0.25400
N1753       N  0.51431507  0.02317262  0.98960457    -0.46200
H1754       H  0.52457244  0.11142028  0.91506175     0.07500
C1755       C  0.90979732  0.45768684  0.84904504    -0.06300
Cl1756     Cl  0.99394247  0.00163713  0.89740654    -0.49300
C1757       C  0.93991034  0.40105350  0.92570622     0.43200
H1758       H  0.52900934  0.04925823  0.79751900     0.07400
N1759       N  0.89772597  0.46639355  0.89205592    -0.46000
C1760       C  0.59639732  0.05036212  0.61811729     0.43100
N1761       N  0.55437049  0.04255244  0.62052804     0.02000
C1762       C  0.96891259  0.48258742  0.73678051    -0.05900
H1763       H  0.99572375  0.41814001  0.67817971     0.07500
C1764       C  0.94072542  0.41800686  0.59779888    -0.06300
Co1765     Co  0.53079886  0.02336866  0.67883025     0.74200
N1766       N  0.51317945  0.45755397  0.67739543    -0.25400
Co1767     Co  0.96935848  0.46043010  0.67538464     0.74100
C1768       C  0.94183421  0.39621950  0.61444187     0.43200
N1769       N  0.98154396  0.49203678  0.57707160     0.01600
N1770       N  0.95825426  0.43392817  0.63974997     0.01700
N1771       N  0.50809807  0.02331694  0.73794089    -0.46300
H1772       H  0.59512022  0.03599209  0.66431278     0.07500
N1773       N  0.53744398  0.48168482  0.67858634     0.02000
N1774       N  0.93146955  0.45954978  0.66964457     0.01700
C1775       C  0.88782478  0.44658273  0.67147476     0.43300
N1776       N  0.50653923  0.01478766  0.57881469    -0.24900
C1777       C  0.53909722  0.08313674  0.69148522    -0.05800
N1778       N  0.57640071  0.05236887  0.60351734    -0.46000
N1779       N  0.90906948  0.44696854  0.68619184    -0.46200
C1780       C  0.53836057  0.10477113  0.67420976     0.43100
N1781       N  0.50239028  0.01129410  0.71236691     0.02000
N1782       N  0.98244025  0.03998439  0.61477748    -0.24900
N1783       N  0.55913381  0.03510948  0.64564101    -0.25400
N1784       N  0.95818566  0.01588911  0.61360469     0.01600
H1785       H  0.99340881  0.08337993  0.61147490     0.07500
H1786       H  0.88797350  0.46099137  0.62553082     0.07500
N1787       N  0.98105438  0.48726759  0.71111270    -0.25500
N1788       N  0.95158263  0.44067105  0.61516938    -0.25100
N1789       N  0.52663017  0.06855128  0.64815113     0.02000
C1790       C  0.54851954  0.45009587  0.67478714     0.43400
C1791       C  0.51951352  0.01968312  0.55380493    -0.06300
N1792       N  0.92578802  0.46666040  0.64473503    -0.25100
H1793       H  0.93169455  0.41646983  0.57689985     0.07500
N1794       N  0.55925898  0.47816063  0.67726625    -0.46300
H1795       H  0.53845801  0.03900867  0.54796692     0.07500
C1796       C  0.94699878  0.04740835  0.60916698     0.43200
C1797       C  0.58497963  0.03899310  0.64604300    -0.05800
Co1798     Co  0.51695395  0.04212897  0.61301591     0.73800
N1799       N  0.97585888  0.48070906  0.55123316    -0.46000
C1800       C  0.99527323  0.99880019  0.75522393     0.43500
N1801       N  0.53072223  0.09427946  0.64761092    -0.46000
Co1802     Co  0.95328874  0.47919016  0.61085374     0.73900
C1803       C  0.89891336  0.45965651  0.64404572    -0.06300
C1804       C  0.51808184  0.43642642  0.67519432    -0.05900
N1805       N  0.53173431  0.06154114  0.67343294    -0.25400
N1806       N  0.95277283  0.40766605  0.64014761    -0.46200
H1807       H  0.94976833  0.46363003  0.74294269     0.07500
C1808       C  0.97753095  0.06120952  0.61218810    -0.06300
Cl1809     Cl  0.99736357  0.99767126  0.64585765    -0.49300
C1810       C  0.99777688  0.49818522  0.53465371     0.43200
H1811       H  0.54568018  0.08417557  0.71341972     0.07400
N1812       N  0.93650019  0.01936563  0.61016464    -0.46000
C1813       C  0.59263424  0.23202979  0.67830722     0.16600
C1814       C  0.58107554  0.20779597  0.66107611    -0.32500
C1815       C  0.56823684  0.18146556  0.67469671     0.21000
C1816       C  0.56670443  0.17932565  0.70411816     0.03200
C1817       C  0.57744062  0.20346597  0.72125123    -0.22200
C1818       C  0.59051310  0.22973937  0.70766506     0.12300
S1819       S  0.61229512  0.26601706  0.66636291    -0.05900
C1820       C  0.61760503  0.27727927  0.70135688    -0.09300
C1821       C  0.60436580  0.25547433  0.72088827    -0.25900
S1822       S  0.55275303  0.14575711  0.71666795    -0.03100
C1823       C  0.54872703  0.13436918  0.68192169    -0.16600
C1824       C  0.55754070  0.15563612  0.66183084    -0.14600
H1825       H  0.58304132  0.20942069  0.63813708     0.20800
H1826       H  0.57669055  0.20190809  0.74425302     0.16800
H1827       H  0.60646392  0.25811772  0.74379889     0.19400
H1828       H  0.55721573  0.15249250  0.63904342     0.12700
C1829       C  0.76033304  0.38352223  0.67689403     0.16600
C1830       C  0.78424242  0.39967887  0.66021695    -0.32500
C1831       C  0.81059935  0.40827424  0.67263887     0.21000
C1832       C  0.81306046  0.40069280  0.70016441     0.03200
C1833       C  0.78922679  0.38444885  0.71670688    -0.22200
C1834       C  0.76300812  0.37634159  0.70452228     0.12300
S1835       S  0.72638950  0.37211007  0.66663657    -0.05900
C1836       C  0.71600179  0.35819184  0.70020850    -0.09300
C1837       C  0.73775787  0.36181247  0.71787661    -0.25900
S1838       S  0.84682922  0.41345283  0.71151961    -0.03100
C1839       C  0.85790397  0.42967719  0.67903538    -0.16600
C1840       C  0.83631360  0.42494210  0.66040408    -0.14600
H1841       H  0.78244242  0.40577667  0.63875595     0.20800
H1842       H  0.79106571  0.37885640  0.73838292     0.16800
H1843       H  0.73524231  0.35465416  0.73971995     0.19400
H1844       H  0.83919922  0.43328995  0.63904791     0.12700
C1845       C  0.62769067  0.41566173  0.71482692     0.16600
C1846       C  0.62674260  0.43735658  0.70050619    -0.32500
C1847       C  0.60126104  0.43066372  0.68741701     0.21000
C1848       C  0.57898983  0.40301405  0.68555782     0.03200
C1849       C  0.58098183  0.38096893  0.69751318    -0.22200
C1850       C  0.60511100  0.38817868  0.71369413     0.12300
S1851       S  0.65062156  0.42191674  0.74202385    -0.05900
C1852       C  0.62703300  0.38876059  0.75507054    -0.09300
C1853       C  0.60584299  0.37214314  0.73553907    -0.25900
S1854       S  0.54798249  0.39964593  0.67514150    -0.03100
C1855       C  0.56465638  0.43584425  0.67519080    -0.16600
C1856       C  0.59324097  0.44964594  0.68084672    -0.14600
H1857       H  0.64327225  0.45911116  0.70362035     0.20800
H1858       H  0.56268618  0.35990098  0.69833251     0.16800
H1859       H  0.58813035  0.35142801  0.74026146     0.19400
H1860       H  0.60665067  0.47224722  0.68336152     0.12700
C1861       C  0.58566095  0.18624191  0.84046054     0.16600
C1862       C  0.60480717  0.20988733  0.82503923    -0.32500
C1863       C  0.61283262  0.23636696  0.83627409     0.21000
C1864       C  0.60249612  0.23951716  0.86183746     0.03200
C1865       C  0.58338248  0.21570818  0.87750797    -0.22200
C1866       C  0.57518160  0.18902823  0.86611146     0.12300
S1867       S  0.57351139  0.15238011  0.83011254    -0.05900
C1868       C  0.55413198  0.14156188  0.86074455    -0.09300
C1869       C  0.55691192  0.16330214  0.87788197    -0.25900
S1870       S  0.61408937  0.27392287  0.87061421    -0.03100
C1871       C  0.63247307  0.28369204  0.83920270    -0.16600
C1872       C  0.63015498  0.26148693  0.82346893    -0.14600
H1873       H  0.61287175  0.20773975  0.80491715     0.20800
H1874       H  0.57502342  0.21784806  0.89743088     0.16800
H1875       H  0.54663091  0.16050075  0.89809960     0.19400
H1876       H  0.63979673  0.26360863  0.80296137     0.12700
C1877       C  0.76134138  0.40387104  0.85866841     0.16600
C1878       C  0.78530708  0.41558647  0.87628020    -0.32500
C1879       C  0.81156612  0.42746324  0.86307209     0.21000
C1880       C  0.81391649  0.42769288  0.83369272     0.03200
C1881       C  0.79004963  0.41652914  0.81613508    -0.22200
C1882       C  0.76386164  0.40467917  0.82932552     0.12300
S1883       S  0.72734962  0.38602844  0.87026368    -0.05900
C1884       C  0.71643145  0.37983563  0.83510419    -0.09300
C1885       C  0.73836149  0.39128162  0.81579291    -0.25900
S1886       S  0.84741646  0.44127433  0.82182980    -0.03100
C1887       C  0.85844321  0.44703395  0.85681248    -0.16600
C1888       C  0.83715929  0.43885647  0.87645212    -0.14600
H1889       H  0.78353877  0.41479432  0.89924765     0.20800
H1890       H  0.79174499  0.41638507  0.79319066     0.16800
H1891       H  0.73590435  0.38838458  0.79293225     0.19400
H1892       H  0.84017285  0.44037834  0.89934358     0.12700
C1893       C  0.59930760  0.43333127  0.84970238     0.16600
C1894       C  0.62248393  0.43322140  0.83855726    -0.32500
C1895       C  0.61742451  0.40897119  0.82398609     0.21000
C1896       C  0.59083880  0.38506987  0.82266511     0.03200
C1897       C  0.56793247  0.38447326  0.83569514    -0.22200
C1898       C  0.57257600  0.40956076  0.84813253     0.12300
S1899       S  0.60020268  0.46300649  0.86074775    -0.05900
C1900       C  0.56409673  0.44360348  0.86231174    -0.09300
C1901       C  0.55220808  0.41525216  0.85579752    -0.25900
S1902       S  0.58741491  0.36116336  0.79776162    -0.03100
C1903       C  0.62094079  0.38530675  0.78619371    -0.16600
C1904       C  0.63523362  0.40829609  0.80450881    -0.14600
H1905       H  0.64288557  0.45240860  0.83798691     0.20800
H1906       H  0.54686190  0.36653312  0.83294502     0.16800
H1907       H  0.52985045  0.40022742  0.85441626     0.19400
H1908       H  0.65573161  0.42649688  0.80027406     0.12700
C1909       C  0.89368176  0.07112370  0.59750533     0.16600
C1910       C  0.86949468  0.07292004  0.59488442    -0.32500
C1911       C  0.87309883  0.09985767  0.59245647     0.21000
C1912       C  0.89958860  0.12385862  0.59219780     0.03200
C1913       C  0.92381092  0.12207859  0.59446248    -0.22200
C1914       C  0.92022024  0.09519468  0.59736387     0.12300
S1915       S  0.89373795  0.04056371  0.60203387    -0.05900
C1916       C  0.92989715  0.06039369  0.60414601    -0.09300
C1917       C  0.94110693  0.08916974  0.60108892    -0.25900
S1918       S  0.89939623  0.15447769  0.58996667    -0.03100
C1919       C  0.86300689  0.13501943  0.58968883    -0.16600
C1920       C  0.85214530  0.10600142  0.59087029    -0.14600
H1921       H  0.84873601  0.05415589  0.59530495     0.20800
H1922       H  0.94454684  0.14088262  0.59455750     0.16800
H1923       H  0.96331155  0.10489485  0.60191459     0.19400
H1924       H  0.83010625  0.08987323  0.59084991     0.12700
C1925       C  0.87045855  0.27157302  0.58229334     0.16600
C1926       C  0.87432305  0.29862203  0.57893977    -0.32500
C1927       C  0.89828862  0.32161965  0.59167903     0.21000
C1928       C  0.91730557  0.31766745  0.60718004     0.03200
C1929       C  0.91371522  0.29083181  0.61002262    -0.22200
C1930       C  0.88996117  0.26798418  0.59723337     0.12300
S1931       S  0.84210185  0.24061276  0.57016668    -0.05900
C1932       C  0.85686971  0.22267416  0.58520492    -0.09300
C1933       C  0.88249726  0.24023468  0.59871073    -0.25900
S1934       S  0.94387398  0.34754354  0.62278428    -0.03100
C1935       C  0.92984300  0.36599422  0.60785966    -0.16600
C1936       C  0.90560374  0.34952090  0.59167830    -0.14600
H1937       H  0.85909637  0.30153769  0.56737179     0.20800
H1938       H  0.92855795  0.28780477  0.62220673     0.16800
H1939       H  0.89458013  0.23301270  0.61013253     0.19400
H1940       H  0.89346327  0.35732639  0.58141853     0.12700
C1941       C  0.72186653  0.09624224  0.61148183     0.16600
C1942       C  0.69623005  0.07648371  0.62388093    -0.32500
C1943       C  0.67179578  0.07540564  0.61394295     0.21000
C1944       C  0.67274421  0.09286949  0.59227676     0.03200
C1945       C  0.69839591  0.11271078  0.57999685    -0.22200
C1946       C  0.72288843  0.11414395  0.59027250     0.12300
S1947       S  0.75391536  0.10116975  0.62073092    -0.05900
C1948       C  0.76902822  0.12807258  0.59613546    -0.09300
C1949       C  0.74985151  0.13255119  0.58155479    -0.25900
S1950       S  0.64080829  0.08851293  0.58347217    -0.03100
C1951       C  0.62608502  0.06341441  0.60975044    -0.16600
C1952       C  0.64508893  0.05851427  0.62408907    -0.14600
H1953       H  0.69540444  0.06276177  0.64081206     0.20800
H1954       H  0.69927393  0.12671678  0.56336320     0.16800
H1955       H  0.75534877  0.14839036  0.56527557     0.19400
H1956       H  0.63974971  0.04376135  0.64146044     0.12700
C1957       C  0.86778893  0.09830265  0.94706668     0.16600
C1958       C  0.86952035  0.07407137  0.94451421    -0.32500
C1959       C  0.89609121  0.07776600  0.94008613     0.21000
C1960       C  0.91992524  0.10443037  0.93843336     0.03200
C1961       C  0.91814023  0.12868446  0.94089266    -0.22200
C1962       C  0.89147675  0.12495267  0.94518986     0.12300
S1963       S  0.83748075  0.09817049  0.95199751    -0.05900
C1964       C  0.85653102  0.13465147  0.95111685    -0.09300
C1965       C  0.88527040  0.14584725  0.94754555    -0.25900
S1966       S  0.95026305  0.10437416  0.93353114    -0.03100
C1967       C  0.93059965  0.06805089  0.93366052    -0.16600
C1968       C  0.90205092  0.05678720  0.93719691    -0.14600
H1969       H  0.85093837  0.05323615  0.94584717     0.20800
H1970       H  0.93669853  0.14952702  0.93946898     0.16800
H1971       H  0.90101058  0.16798801  0.94606690     0.19400
H1972       H  0.88653036  0.03448260  0.93802708     0.12700
C1973       C  0.89290268  0.27528380  0.93396896     0.16600
C1974       C  0.91249221  0.30088707  0.92144314    -0.32500
C1975       C  0.91360149  0.32534629  0.93101164     0.21000
C1976       C  0.89627658  0.32455838  0.95245873     0.03200
C1977       C  0.87645332  0.29879966  0.96494142    -0.22200
C1978       C  0.87502791  0.27415458  0.95499089     0.12300
S1979       S  0.88830823  0.24342581  0.92483450    -0.05900
C1980       C  0.86158469  0.22801178  0.94921308    -0.09300
C1981       C  0.85668477  0.24873420  0.45930438    -0.25900
S1982       S  0.90101143  0.35685898  0.96066988    -0.03100
C1983       C  0.92609715  0.37127218  0.93446411    -0.16600
C1984       C  0.93062480  0.35196426  0.92060994    -0.14600
H1985       H  0.92611672  0.30167019  0.90469041     0.20800
H1986       H  0.86065086  0.29924647  0.47529442     0.16800
H1987       H  0.83974675  0.24273504  0.47414619     0.19400
H1988       H  0.94532107  0.35703788  0.90343562     0.12700
C1989       C  0.72046955  0.10636987  0.93342233     0.16600
C1990       C  0.69418811  0.08598161  0.92232239    -0.32500
C1991       C  0.67068302  0.08693980  0.93103677     0.21000
C1992       C  0.67314104  0.10709075  0.95023570     0.03200
C1993       C  0.69955068  0.12779410  0.96101266    -0.22200
C1994       C  0.72315795  0.12702548  0.95204076     0.12300
S1995       S  0.75169587  0.11309309  0.42178424    -0.05900
C1996       C  0.76834263  0.13767611  0.94756930    -0.09300
C1997       C  0.75065752  0.14528196  0.96002001    -0.25900
S1998       S  0.64188456  0.10419823  0.95851579    -0.03100
C1999       C  0.62551146  0.07597234  0.93538392    -0.16600
C2000       C  0.64345299  0.06921770  0.92222345    -0.14600
H2001       H  0.69264430  0.07506222  0.40498523     0.20800
H2002       H  0.70159694  0.14375852  0.97573869     0.16800
H2003       H  0.75748341  0.16292256  0.97442983     0.19400
H2004       H  0.63690346  0.05231261  0.90689864     0.12700
C2005       C  0.84282345  0.65286653  0.98104036     0.03800
C2006       C  0.81344062  0.63913425  0.97813111    -0.12400
C2007       C  0.79995250  0.65445332  0.97409256     0.01300
C2008       C  0.81609255  0.68405067  0.97359333    -0.10900
C2009       C  0.84551752  0.69815533  0.97594239     0.03700
C2010       C  0.85853869  0.68249750  0.98034688    -0.10300
H2011       H  0.80093477  0.61635097  0.97784403     0.09300
H2012       H  0.80599106  0.69592474  0.96914512     0.06900
H2013       H  0.88114642  0.69368290  0.98263620     0.06700
C2014       C  0.84382024  0.64829712  0.06576313     0.03800
C2015       C  0.81448866  0.63209833  0.06967004    -0.12400
C2016       C  0.79827367  0.64480580  0.07132306     0.01300
C2017       C  0.81155642  0.67423129  0.06908921    -0.10900
C2018       C  0.84084307  0.69105126  0.06605562     0.03700
C2019       C  0.85656395  0.67780970  0.06361761    -0.10300
H2020       H  0.80391196  0.60949996  0.07185356     0.09300
H2021       H  0.79923891  0.68408560  0.07159301     0.06900
H2022       H  0.87898384  0.69078159  0.06062477     0.06700
C2023       C  0.66056315  0.83847537  0.29126670     0.03800
C2024       C  0.68271895  0.86113611  0.30631895    -0.12400
C2025       C  0.69132646  0.85685873  0.33305100     0.01300
C2026       C  0.67447601  0.83127120  0.34736157    -0.10900
C2027       C  0.64992888  0.80975406  0.33416873     0.03700
C2028       C  0.64269146  0.81398915  0.30674312    -0.10300
H2029       H  0.69620147  0.88098185  0.29580740     0.09300
H2030       H  0.68202062  0.82697805  0.36694249     0.06900
H2031       H  0.62502197  0.79612966  0.29649644     0.06700
C2032       C  0.66195539  0.83643122  0.25939214     0.03800
C2033       C  0.63994528  0.81381436  0.24405368    -0.12400
C2034       C  0.64513845  0.80397129  0.21865604     0.01300
C2035       C  0.67159732  0.81966730  0.20587381    -0.10900
C2036       C  0.69318914  0.84367700  0.21960946     0.03700
C2037       C  0.68809286  0.85202556  0.24586011    -0.10300
H2038       H  0.61917189  0.80183481  0.25297443     0.09300
H2039       H  0.67620609  0.81179644  0.18687928     0.06900
H2040       H  0.70579249  0.86944306  0.25654224     0.06700
C2041       C  0.54585292  0.96228643  0.36583878     0.43100
N2042       N  0.51246635  0.97079906  0.36404857     0.02000
C2043       C  0.53169023  0.59612479  0.39573938    -0.05900
H2044       H  0.57412331  0.56786922  0.47148222     0.07500
C2045       C  0.97401244  0.97978071  0.48865577    -0.06300
Co2046     Co  0.53854997  0.52767960  0.37148121     0.74200
N2047       N  0.55398686  0.54745983  0.43179093    -0.25400
Co2048     Co  0.51492377  0.54393556  0.43193116     0.74100
C2049       C  0.99536646  0.99570366  0.00555927     0.43200
N2050       N  0.95244515  0.94271176  0.42540275     0.01600
N2051       N  0.99909736  0.51787783  0.46277408     0.01100
N2052       N  0.54800715  0.58669803  0.35594714    -0.46300
H2053       H  0.57958154  0.00946872  0.36826382     0.07500
N2054       N  0.56311358  0.54121478  0.40878382     0.02000
N2055       N  0.97178072  0.54391559  0.43305890     0.01700
C2056       C  0.93984261  0.55381362  0.43991523     0.43300
N2057       N  0.96125378  0.93609361  0.40240610    -0.24900
C2058       C  0.51845289  0.52402711  0.30789165    -0.05800
N2059       N  0.51767307  0.95003653  0.36407062    -0.46000
N2060       N  0.96776518  0.56509796  0.43759578    -0.46200
C2061       C  0.98901767  0.51166933  0.28401308     0.43100
N2062       N  0.53669221  0.56477205  0.37348280     0.02000
N2063       N  0.93666251  0.96145494  0.36728833    -0.24900
N2064       N  0.53558742  0.99592614  0.36551590    -0.25400
N2065       N  0.92873070  0.96879836  0.39049821     0.01600
H2066       H  0.91571829  0.94396598  0.32698992     0.07500
H2067       H  0.90464944  0.50702116  0.43731281     0.07500
N2068       N  0.52761391  0.57024328  0.39705046    -0.25500
N2069       N  0.97839615  0.99277046  0.46356400    -0.25100
N2070       N  0.98862980  0.98871269  0.33121145     0.02000
C2071       C  0.59838306  0.55908881  0.43771866     0.43400
C2072       C  0.95665814  0.90998205  0.40550293    -0.06300
N2073       N  0.94811688  0.51926758  0.43209408    -0.25100
H2074       H  0.95557473  0.95995179  0.49434793     0.07500
N2075       N  0.58964088  0.54796198  0.41138738    -0.46300
H2076       H  0.96024338  0.89827145  0.38943765     0.07500
C2077       C  0.89394229  0.95511769  0.36172078     0.43200
C2078       C  0.55783951  0.99268611  0.36654059    -0.05800
Co2079     Co  0.97489413  0.96235798  0.36682305     0.73800
N2080       N  0.94106680  0.92190838  0.44414993    -0.46000
C2081       C  0.54520659  0.60711796  0.36858727     0.43500
N2082       N  0.97810779  0.98122034  0.30503940    -0.46000
Co2083     Co  0.95281749  0.98044690  0.42751179     0.73900
C2084       C  0.92661205  0.52332820  0.43645222    -0.06300
C2085       C  0.57485254  0.55904740  0.45121441    -0.05900
N2086       N  0.51346859  0.51310924  0.33430001    -0.25400
N2087       N  0.51439301  0.52128562  0.49133365    -0.46200
H2088       H  0.52785197  0.60665187  0.41288886     0.07500
C2089       C  0.91590915  0.95246153  0.34775821    -0.06300
Cl2090     Cl  0.98989612  0.50822789  0.39557174    -0.49300
C2091       C  0.94331286  0.90065479  0.43323413     0.43200
H2092       H  0.53683427  0.54361667  0.30155892     0.07400
N2093       N  0.90337093  0.96513973  0.38813664    -0.46000
C2094       C  0.59785144  0.54865480  0.11521958     0.43100
N2095       N  0.55643992  0.54133727  0.12166622     0.02000
C2096       C  0.97413791  0.97552018  0.23867279    -0.05900
H2097       H  0.99345357  0.90840347  0.17291050     0.07500
C2098       C  0.93968457  0.91520464  0.09720808    -0.06300
Co2099     Co  0.53561101  0.52049673  0.18057552     0.74200
N2100       N  0.50866138  0.96361586  0.18045742    -0.25400
Co2101     Co  0.97094588  0.95389438  0.17609649     0.74100
C2102       C  0.94045126  0.89240060  0.11197710     0.43200
N2103       N  0.98143346  0.98863620  0.07920064     0.01600
N2104       N  0.95727329  0.92843804  0.13961883     0.01700
N2105       N  0.51506264  0.51852509  0.24131335    -0.46300
H2106       H  0.59935346  0.53305447  0.16030960     0.07500
N2107       N  0.53306714  0.98757128  0.18162427     0.02000
N2108       N  0.93467899  0.95632099  0.17327780     0.01700
C2109       C  0.89337212  0.94939173  0.17904307     0.43300
N2110       N  0.50737217  0.51607611  0.08166603    -0.24900
C2111       C  0.54506403  0.57994125  0.19709952    -0.05800
N2112       N  0.57717219  0.55119421  0.10306802    -0.46000
N2113       N  0.91378871  0.94664620  0.19168645    -0.46200
C2114       C  0.54374602  0.60212412  0.18148448     0.43100
N2115       N  0.50839644  0.50736141  0.21535126     0.02000
N2116       N  0.98182786  0.54304943  0.10751251    -0.24900
N2117       N  0.56252390  0.53316947  0.14566652    -0.25400
N2118       N  0.95747534  0.51898157  0.10656959     0.01600
H2119       H  0.99304660  0.58635003  0.10181941     0.07500
H2120       H  0.89238796  0.96482002  0.13381956     0.07500
N2121       N  0.98539065  0.97970362  0.21258945    -0.25500
N2122       N  0.95083483  0.93673884  0.11591592    -0.25100
N2123       N  0.53066858  0.56671824  0.15384634     0.02000
C2124       C  0.54362507  0.95548261  0.18109758     0.43400
C2125       C  0.51942563  0.52168556  0.05604194    -0.06300
N2126       N  0.92869953  0.96447109  0.14918004    -0.25100
H2127       H  0.93114307  0.91519599  0.07642478     0.07500
N2128       N  0.55468016  0.98366318  0.18218472    -0.46300
H2129       H  0.53841351  0.54095957  0.05019906     0.07500
C2130       C  0.94660144  0.55042337  0.09914993     0.43200
C2131       C  0.58821474  0.53675242  0.14352207    -0.05800
Co2132     Co  0.51931853  0.54176024  0.11755882     0.73800
N2133       N  0.97508532  0.97765518  0.05322117    -0.46000
C2134       C  0.98976615  0.50869027  0.25276893     0.43500
N2135       N  0.53491463  0.59245433  0.15485846    -0.46000
Co2136     Co  0.95442069  0.97603959  0.11393337     0.73900
C2137       C  0.90325190  0.96118382  0.15092799    -0.06300
C2138       C  0.51321869  0.94218776  0.18025111    -0.05900
N2139       N  0.53676104  0.55888480  0.17809531    -0.25400
N2140       N  0.95143042  0.90208570  0.13812104    -0.46200
H2141       H  0.95438360  0.95742264  0.24508412     0.07500
C2142       C  0.97709693  0.56423212  0.10302257    -0.06300
Cl2143     Cl  0.99489877  0.50214924  0.14375487    -0.49300
C2144       C  0.99709433  0.99489839  0.03662465     0.43200
H2145       H  0.55260695  0.58030116  0.21849740     0.07400
N2146       N  0.93598994  0.52246318  0.10159549    -0.46000
C2147       C  0.60043182  0.72932316  0.18678158     0.16600
C2148       C  0.58801462  0.70514280  0.16950339    -0.32500
C2149       C  0.57555616  0.67883712  0.18306856     0.21000
C2150       C  0.57540116  0.67661624  0.21248418     0.03200
C2151       C  0.58712839  0.70073118  0.22973210    -0.22200
C2152       C  0.59959358  0.72699190  0.21618232     0.12300
S2153       S  0.61910713  0.76330612  0.17468370    -0.05900
C2154       C  0.62542679  0.77445769  0.20967633    -0.09300
C2155       C  0.61353489  0.75270615  0.22935202    -0.25900
S2156       S  0.56134989  0.64293061  0.22474288    -0.03100
C2157       C  0.55534770  0.63170023  0.18987219    -0.16600
C2158       C  0.56367463  0.65305370  0.17000649    -0.14600
H2159       H  0.58878375  0.70676623  0.14651192     0.20800
H2160       H  0.58728763  0.69914968  0.25271233     0.16800
H2161       H  0.61634037  0.75550024  0.25221749     0.19400
H2162       H  0.56206328  0.64995667  0.14714391     0.12700
C2163       C  0.76656503  0.88498217  0.18661800     0.16600
C2164       C  0.79012470  0.90161427  0.16976803    -0.32500
C2165       C  0.81670929  0.91259285  0.18256497     0.21000
C2166       C  0.81982457  0.90709791  0.21072407     0.03200
C2167       C  0.79631650  0.89059270  0.22755953    -0.22200
C2168       C  0.76978357  0.87983788  0.21486304     0.12300
S2169       S  0.73233631  0.87020521  0.17555868    -0.05900
C2170       C  0.72244474  0.85768259  0.20961196    -0.09300
C2171       C  0.74462009  0.86408811  0.22804949    -0.25900
S2172       S  0.85386621  0.92132446  0.22187978    -0.03100
C2173       C  0.86400639  0.93486825  0.18822935    -0.16600
C2174       C  0.84202430  0.92879985  0.16964458    -0.14600
H2175       H  0.78786112  0.90587150  0.14772165     0.20800
H2176       H  0.79860047  0.88628570  0.24954690     0.16800
H2177       H  0.74241829  0.85803032  0.25022259     0.19400
H2178       H  0.84431564  0.93499904  0.14751850     0.12700
C2179       C  0.62056419  0.91811799  0.22258217     0.16600
C2180       C  0.62022462  0.94055886  0.20918965    -0.32500
C2181       C  0.59515943  0.93468062  0.19569785     0.21000
C2182       C  0.57269483  0.90723346  0.19280049     0.03200
C2183       C  0.57406884  0.88455100  0.20392590    -0.22200
C2184       C  0.59781989  0.89081006  0.22028333     0.12300
S2185       S  0.64303794  0.92288406  0.24975780    -0.05900
C2186       C  0.61918015  0.88909971  0.26116122    -0.09300
C2187       C  0.59807736  0.87363041  0.24113904    -0.25900
S2188       S  0.54221775  0.90463787  0.18172064    -0.03100
C2189       C  0.55936342  0.94085064  0.18258530    -0.16600
C2190       C  0.58773470  0.95415407  0.18925114    -0.14600
H2191       H  0.63691856  0.96209662  0.21309182     0.20800
H2192       H  0.55562651  0.86355170  0.20380639     0.16800
H2193       H  0.58020043  0.85276375  0.24495465     0.19400
H2194       H  0.60136309  0.97666939  0.19225248     0.12700
C2195       C  0.58981491  0.68280788  0.34083304     0.16600
C2196       C  0.60798652  0.70726542  0.32580737    -0.32500
C2197       C  0.61598795  0.73319963  0.33859166     0.21000
C2198       C  0.60639996  0.73506107  0.36513785     0.03200
C2199       C  0.58803370  0.71048484  0.38020005    -0.22200
C2200       C  0.58002234  0.68441034  0.36735730     0.12300
S2201       S  0.57846183  0.64931379  0.32928799    -0.05900
C2202       C  0.56032884  0.63715140  0.36057481    -0.09300
C2203       C  0.56287206  0.65822721  0.37867484    -0.25900
S2204       S  0.61827786  0.76898741  0.37618819    -0.03100
C2205       C  0.63587204  0.78040551  0.34443380    -0.16600
C2206       C  0.63297532  0.75899159  0.32683988    -0.14600
H2207       H  0.61562106  0.70615353  0.30503296     0.20800
H2208       H  0.58032038  0.71160231  0.40092733     0.16800
H2209       H  0.55337118  0.65473103  0.39942285     0.19400
H2210       H  0.64216393  0.76218883  0.30592421     0.12700
C2211       C  0.76810394  0.90552881  0.35736385     0.16600
C2212       C  0.79361352  0.92441841  0.37104229    -0.32500
C2213       C  0.81847209  0.92871261  0.35875145     0.21000
C2214       C  0.81806208  0.91509195  0.33385494     0.03200
C2215       C  0.79266208  0.89652109  0.32005140    -0.22200
C2216       C  0.76788071  0.89208298  0.33241657     0.12300
S2217       S  0.73532463  0.89626878  0.36921395    -0.05900
C2218       C  0.72149598  0.87432898  0.34006371    -0.09300
C2219       C  0.74128988  0.87430821  0.32242057    -0.25900
S2220       S  0.85025715  0.92182427  0.32324053    -0.03100
C2221       C  0.86443632  0.94292052  0.35289564    -0.16600
C2222       C  0.84511314  0.94490497  0.36965309    -0.14600
H2223       H  0.79404736  0.93483511  0.39066891     0.20800
H2224       H  0.79215733  0.88549795  0.30088800     0.16800
H2225       H  0.73631766  0.86165819  0.30329316     0.19400
H2226       H  0.85015701  0.95667358  0.38940448     0.12700
C2227       C  0.59461967  0.93366160  0.35594890     0.16600
C2228       C  0.61718112  0.93168750  0.34602021    -0.32500
C2229       C  0.61086959  0.90714157  0.33114709     0.21000
C2230       C  0.58356103  0.88449561  0.32881043     0.03200
C2231       C  0.56124961  0.88546558  0.34114854    -0.22200
C2232       C  0.56726489  0.91104417  0.35344007     0.12300
S2233       S  0.59722030  0.96462596  0.36543583    -0.05900
C2234       C  0.56110709  0.94719293  0.36480771    -0.09300
C2235       C  0.54792410  0.91859222  0.35914188    -0.25900
S2236       S  0.57886983  0.86099750  0.30288834    -0.03100
C2237       C  0.61300701  0.88399260  0.29217838    -0.16600
C2238       C  0.62824576  0.90572694  0.31164491    -0.14600
H2239       H  0.63820038  0.95004147  0.34598431     0.20800
H2240       H  0.53975025  0.86868730  0.33741136     0.16800
H2241       H  0.52545581  0.90471128  0.35648492     0.19400
H2242       H  0.64933089  0.92320985  0.30802202     0.12700
C2243       C  0.89311386  0.57274367  0.08147131     0.16600
C2244       C  0.86881325  0.57397070  0.07680780    -0.32500
C2245       C  0.87215218  0.60049966  0.07177565     0.21000
C2246       C  0.89851298  0.62462067  0.07080592     0.03200
C2247       C  0.92288370  0.62337785  0.07503149    -0.22200
C2248       C  0.91954560  0.59692888  0.08070020     0.12300
S2249       S  0.89338239  0.54281703  0.08940768    -0.05900
C2250       C  0.92950413  0.56302646  0.09199479    -0.09300
C2251       C  0.94055118  0.59149112  0.08672422    -0.25900
S2252       S  0.89791456  0.65481634  0.06603763    -0.03100
C2253       C  0.86152871  0.63504062  0.06607452    -0.16600
C2254       C  0.85098667  0.60619313  0.06880206    -0.14600
H2255       H  0.84814121  0.55514509  0.07785902     0.20800
H2256       H  0.94350947  0.64231504  0.07472129     0.16800
H2257       H  0.96270844  0.60738062  0.08743180     0.19400
H2258       H  0.82903286  0.58992289  0.06953110     0.12700
C2259       C  0.86844883  0.77104955  0.07114573     0.16600
C2260       C  0.87182419  0.79798350  0.07179008    -0.32500
C2261       C  0.89649650  0.82003382  0.08440769     0.21000
C2262       C  0.91674730  0.81536513  0.09601022     0.03200
C2263       C  0.91363130  0.78864301  0.09479510    -0.22200
C2264       C  0.88908230  0.76669038  0.08211337     0.12300
S2265       S  0.83932231  0.74103994  0.05869673    -0.05900
C2266       C  0.85522646  0.72236388  0.06807938    -0.09300
C2267       C  0.88180226  0.73904439  0.08017576    -0.25900
S2268       S  0.94412413  0.84414080  0.11229952    -0.03100
C2269       C  0.92858398  0.86295314  0.10283370    -0.16600
C2270       C  0.90340483  0.84753303  0.08792080    -0.14600
H2271       H  0.85570276  0.80147268  0.06335624     0.20800
H2272       H  0.92939126  0.78497125  0.10393061     0.16800
H2273       H  0.89470548  0.73122661  0.08845060     0.19400
H2274       H  0.89040155  0.85573236  0.08098703     0.12700
C2275       C  0.72218671  0.59534511  0.09641512     0.16600
C2276       C  0.69777938  0.57543427  0.11055997    -0.32500
C2277       C  0.67253611  0.57402177  0.10341844     0.21000
C2278       C  0.67149993  0.59127515  0.08266496     0.03200
C2279       C  0.69595597  0.61126574  0.06855234    -0.22200
C2280       C  0.72133630  0.61308434  0.07613613     0.12300
S2281       S  0.75489083  0.60065176  0.10248534    -0.05900
C2282       C  0.76784364  0.62745154  0.07777344    -0.09300
C2283       C  0.74750977  0.63172849  0.06553694    -0.25900
S2284       S  0.63886738  0.58657234  0.07749081    -0.03100
C2285       C  0.62668155  0.56172898  0.10416794    -0.16600
C2286       C  0.64690303  0.55705761  0.11584692    -0.14600
H2287       H  0.69851883  0.56190862  0.12678314     0.20800
H2288       H  0.69530263  0.62510628  0.05265863     0.16800
H2289       H  0.75165426  0.64755812  0.04963523     0.19400
H2290       H  0.64321449  0.54249849  0.13300758     0.12700
C2291       C  0.86998387  0.60235299  0.48021576     0.16600
C2292       C  0.87178918  0.57809205  0.47783387    -0.32500
C2293       C  0.89562366  0.58085401  0.46459989     0.21000
C2294       C  0.91694574  0.60675345  0.45487135     0.03200
C2295       C  0.91515234  0.63091028  0.45734724    -0.22200
C2296       C  0.89112249  0.62802899  0.46998918     0.12300
S2297       S  0.84186627  0.60315834  0.49323265    -0.05900
C2298       C  0.85833110  0.63835939  0.48391223    -0.09300
C2299       C  0.88474370  0.64869789  0.47223973    -0.25900
S2300       S  0.94438267  0.60610191  0.43996646    -0.03100
C2301       C  0.92692162  0.57047430  0.44649375    -0.16600
C2302       C  0.90110550  0.55975859  0.45953891    -0.14600
H2303       H  0.85508196  0.55787255  0.48534726     0.20800
H2304       H  0.93156032  0.65100941  0.44925164     0.16800
H2305       H  0.89796939  0.66973177  0.46392971     0.19400
H2306       H  0.88746306  0.53794464  0.46556267     0.12700
C2307       C  0.89614267  0.77631284  0.45569558     0.16600
C2308       C  0.91708685  0.80093273  0.44262109    -0.32500
C2309       C  0.91718700  0.82591193  0.44746453     0.21000
C2310       C  0.89770721  0.82655984  0.46512387     0.03200
C2311       C  0.87657477  0.80181138  0.47809967    -0.22200
C2312       C  0.87604812  0.77661155  0.47265024     0.12300
S2313       S  0.89231162  0.74394565  0.45190191    -0.05900
C2314       C  0.86286000  0.73022618  0.47293189    -0.09300
C2315       C  0.85736772  0.74876609  0.98005913    -0.25900
S2316       S  0.90149328  0.85912331  0.46803938    -0.03100
C2317       C  0.92901970  0.87168650  0.44453179    -0.16600
C2318       C  0.93507214  0.85165369  0.43549764    -0.14600
H2319       H  0.93240276  0.80054248  0.42889513     0.20800
H2320       H  0.86239475  0.80083324  0.98974914     0.16800
H2321       H  0.83989878  0.74427834  0.99356512     0.19400
H2322       H  0.95141735  0.85560085  0.42057686     0.12700
C2323       C  0.72321862  0.60635623  0.45537518     0.16600
C2324       C  0.69807019  0.58537226  0.44274942    -0.32500
C2325       C  0.67359224  0.58574706  0.44840396     0.21000
C2326       C  0.67397680  0.60577881  0.46635037     0.03200
C2327       C  0.69927742  0.62703452  0.47876040    -0.22200
C2328       C  0.72393829  0.62700454  0.47260267     0.12300
S2329       S  0.75506632  0.61117378  0.94333427    -0.05900
C2330       C  0.76980370  0.63907767  0.47225302    -0.09300
C2331       C  0.75074911  0.64615810  0.48202762    -0.25900
S2332       S  0.64179242  0.60221020  0.47069873    -0.03100
C2333       C  0.62793971  0.57397276  0.44744846    -0.16600
C2334       C  0.64732802  0.56763718  0.43730034    -0.14600
H2335       H  0.69820992  0.57368724  0.91905061     0.20800
H2336       H  0.69974586  0.64297258  0.49241024     0.16800
H2337       H  0.75617335  0.66413830  0.49546287     0.19400
H2338       H  0.64247635  0.55077828  0.42241966     0.12700
C2339       C  0.84388710  0.65470456  0.48428083     0.03800
C2340       C  0.81446965  0.64053680  0.48257243    -0.12400
C2341       C  0.80040662  0.65526242  0.47865064     0.01300
C2342       C  0.81612248  0.68491723  0.47749819    -0.10900
C2343       C  0.84568782  0.69956721  0.47900952     0.03700
C2344       C  0.85922647  0.68430270  0.48298544    -0.10300
H2345       H  0.80233691  0.61774760  0.48289033     0.09300
H2346       H  0.80554137  0.69635891  0.47326790     0.06900
H2347       H  0.88191376  0.69564616  0.48439876     0.06700
C2348       C  0.84539896  0.65090838  0.56581998     0.03800
C2349       C  0.81590599  0.63534204  0.56672426    -0.12400
C2350       C  0.80032903  0.64872144  0.56730443     0.01300
C2351       C  0.81444533  0.67825884  0.56579131    -0.10900
C2352       C  0.84400701  0.69452133  0.56475398     0.03700
C2353       C  0.85912990  0.68049576  0.56423168    -0.10300
H2354       H  0.80472588  0.61259833  0.56742011     0.09300
H2355       H  0.80243483  0.68852627  0.56725592     0.06900
H2356       H  0.88176278  0.69270401  0.56323643     0.06700
C2357       C  0.65978492  0.83732498  0.78245235     0.03800
C2358       C  0.68208382  0.85962753  0.79761129    -0.12400
C2359       C  0.69090021  0.85482401  0.82399280     0.01300
C2360       C  0.67376172  0.82908669  0.83807433    -0.10900
C2361       C  0.64911804  0.80782396  0.82472624     0.03700
C2362       C  0.64208653  0.81237649  0.79738990    -0.10300
H2363       H  0.69524904  0.87968805  0.78730621     0.09300
H2364       H  0.68093491  0.82454146  0.85775055     0.06900
H2365       H  0.62454150  0.79462145  0.78685573     0.06700
C2366       C  0.66092224  0.83609870  0.75059468     0.03800
C2367       C  0.63828683  0.81428660  0.73523125    -0.12400
C2368       C  0.64299255  0.80321496  0.71051970     0.01300
C2369       C  0.66961651  0.81755708  0.69783081    -0.10900
C2370       C  0.69179045  0.84146142  0.71121257     0.03700
C2371       C  0.68723180  0.85062048  0.73721138    -0.10300
H2372       H  0.61749912  0.80316195  0.74427901     0.09300
H2373       H  0.67379080  0.80863474  0.67937974     0.06900
H2374       H  0.70541134  0.86739799  0.74803362     0.06700
C2375       C  0.54331872  0.96277758  0.86252956     0.43100
N2376       N  0.50966512  0.97094340  0.86296808     0.02000
C2377       C  0.52993197  0.59617911  0.89407951    -0.05900
H2378       H  0.57510224  0.56899999  0.96751964     0.07500
C2379       C  0.97142942  0.97651401  0.98777136    -0.06300
Co2380     Co  0.53625510  0.52782535  0.86870199     0.74200
N2381       N  0.55345816  0.54750538  0.92878901    -0.25400
Co2382     Co  0.51445585  0.54381265  0.93089150     0.74100
C2383       C  0.99831687  0.99898597  0.50598553     0.43200
N2384       N  0.95177878  0.94046874  0.92357518     0.01600
N2385       N  0.00042592  0.51626461  0.96421560     0.01100
N2386       N  0.54440658  0.58578858  0.85354717    -0.46300
H2387       H  0.57681919  0.01000408  0.86385875     0.07500
N2388       N  0.56184063  0.54130314  0.90521026     0.02000
N2389       N  0.97312685  0.54280492  0.93564408     0.01700
C2390       C  0.94183776  0.55309317  0.94520135     0.43300
N2391       N  0.96082050  0.93425677  0.90048105    -0.24900
C2392       C  0.51655828  0.52435177  0.80551862    -0.05800
N2393       N  0.51501285  0.95023682  0.86218156    -0.46000
N2394       N  0.96961317  0.56409097  0.94165864    -0.46200
C2395       C  0.98840042  0.50913542  0.78589931     0.43100
N2396       N  0.53414791  0.56445553  0.87170382     0.02000
N2397       N  0.93574510  0.95941870  0.86561316    -0.24900
N2398       N  0.53277790  0.99610839  0.86359683    -0.25400
N2399       N  0.92748759  0.96607824  0.88905718     0.01600
H2400       H  0.91501440  0.94259474  0.82501387     0.07500
H2401       H  0.90625755  0.50643595  0.94261847     0.07500
N2402       N  0.52600319  0.57029329  0.89572685    -0.25500
N2403       N  0.97620902  0.98965469  0.96267835    -0.25100
N2404       N  0.98811591  0.98766584  0.83012483     0.02000
C2405       C  0.59838054  0.56053666  0.93239260     0.43400
C2406       C  0.95694952  0.90842529  0.90343398    -0.06300
N2407       N  0.94928544  0.51830893  0.93491676    -0.25100
H2408       H  0.95295094  0.95660080  0.99316801     0.07500
N2409       N  0.58867603  0.54891264  0.90641896    -0.46300
H2410       H  0.96099143  0.89708440  0.88732589     0.07500
C2411       C  0.89265139  0.95235118  0.86034015     0.43200
C2412       C  0.55508621  0.99307397  0.86323364    -0.05800
Co2413     Co  0.97432650  0.96081344  0.86524066     0.73800
N2414       N  0.94098902  0.91966567  0.94228767    -0.46000
C2415       C  0.54210891  0.60645009  0.86612210     0.43500
N2416       N  0.97779515  0.98036345  0.80388476    -0.46000
Co2417     Co  0.95129007  0.97767898  0.92618668     0.73900
C2418       C  0.92818146  0.52263115  0.94082590    -0.06300
C2419       C  0.57512828  0.55982574  0.94722375    -0.05900
N2420       N  0.51073736  0.51376387  0.83201332    -0.25400
N2421       N  0.51457145  0.52130648  0.99078671    -0.46200
H2422       H  0.52673795  0.60715396  0.91125544     0.07500
C2423       C  0.91502142  0.95061372  0.84599231    -0.06300
Cl2424     Cl  0.99020977  0.50616611  0.89757808    -0.49300
C2425       C  0.94385528  0.89886744  0.93121285     0.43200
H2426       H  0.53562842  0.54332929  0.79924449     0.07400
N2427       N  0.90191243  0.96185890  0.88689937    -0.46000
C2428       C  0.60063923  0.55276682  0.61380139     0.43100
N2429       N  0.55821486  0.54226954  0.62052915     0.02000
C2430       C  0.97525891  0.97478447  0.73759728    -0.05900
H2431       H  0.00106917  0.91184901  0.67470985     0.07500
C2432       C  0.94549366  0.91878851  0.59423985    -0.06300
Co2433     Co  0.53843769  0.52000775  0.67920706     0.74200
N2434       N  0.50426434  0.96080610  0.68059801    -0.25400
Co2435     Co  0.97419301  0.95457314  0.67464272     0.74100
C2436       C  0.94781399  0.89626070  0.60746078     0.43200
N2437       N  0.98398658  0.99173344  0.57923118     0.01600
N2438       N  0.96231217  0.93057097  0.63710903     0.01700
N2439       N  0.51643435  0.51756457  0.73961341    -0.46300
H2440       H  0.60335317  0.53682815  0.65835124     0.07500
N2441       N  0.52877930  0.98464707  0.68195900     0.02000
N2442       N  0.93632058  0.95448999  0.67192691     0.01700
C2443       C  0.89365542  0.94428212  0.67699592     0.43300
N2444       N  0.50836050  0.51530795  0.58148684    -0.24900
C2445       C  0.54671123  0.57887055  0.69682451    -0.05800
N2446       N  0.57903774  0.55392177  0.60201345    -0.46000
N2447       N  0.91462398  0.94227148  0.68948208    -0.46200
C2448       C  0.54413719  0.60059316  0.68170069     0.43100
N2449       N  0.51120311  0.50564035  0.71402315     0.02000
N2450       N  0.97899237  0.54179632  0.60855829    -0.24900
N2451       N  0.56510091  0.53424575  0.64413150    -0.25400
N2452       N  0.95476772  0.51759745  0.60796377     0.01600
H2453       H  0.98976171  0.58506559  0.60451547     0.07500
H2454       H  0.89318995  0.96198499  0.63281085     0.07500
N2455       N  0.98704776  0.97968751  0.71172582    -0.25500
N2456       N  0.95523371  0.93921975  0.61406771    -0.25100
N2457       N  0.53110321  0.56528300  0.65392992     0.02000
C2458       C  0.53894767  0.95226315  0.68194738     0.43400
C2459       C  0.52016564  0.52113187  0.55578707    -0.06300
N2460       N  0.93035385  0.96356578  0.64844599    -0.25100
H2461       H  0.93700788  0.91931569  0.57358876     0.07500
N2462       N  0.55021648  0.98048198  0.68288253    -0.46300
H2463       H  0.53881986  0.54065047  0.54979332     0.07500
C2464       C  0.94347081  0.54893766  0.60271473     0.43200
C2465       C  0.59148345  0.53975594  0.64176986    -0.05800
Co2466     Co  0.52010454  0.54084308  0.61733148     0.73800
N2467       N  0.97817946  0.98074191  0.55330535    -0.46000
C2468       C  0.98849769  0.50680589  0.75438714     0.43500
N2469       N  0.53459973  0.59067871  0.65529857    -0.46000
Co2470     Co  0.95668483  0.97750997  0.61357183     0.73900
C2471       C  0.90415675  0.95842209  0.64986007    -0.06300
C2472       C  0.50857674  0.93920684  0.68070662    -0.05900
N2473       N  0.53826948  0.55780414  0.67776329    -0.25400
N2474       N  0.95814146  0.90491519  0.63406284    -0.46200
H2475       H  0.95578060  0.95613715  0.74365070     0.07500
C2476       C  0.97399438  0.56286142  0.60520277    -0.06300
Cl2477     Cl  0.99317421  0.50172255  0.64439586    -0.49300
C2478       C  0.00012716  0.99840468  0.53694913     0.43200
H2479       H  0.55514143  0.57957267  0.71786218     0.07400
N2480       N  0.93297075  0.52092852  0.60458616    -0.46000
C2481       C  0.59640940  0.72720261  0.68315372     0.16600
C2482       C  0.58280310  0.70227087  0.66709878    -0.32500
C2483       C  0.57285505  0.67673723  0.68162621     0.21000
C2484       C  0.57607082  0.67587807  0.71084957     0.03200
C2485       C  0.58881461  0.70074043  0.72702803    -0.22200
C2486       C  0.59891588  0.72628231  0.71246884     0.12300
S2487       S  0.61297962  0.76054339  0.66928356    -0.05900
C2488       C  0.62296674  0.77332338  0.70343733    -0.09300
C2489       C  0.61371544  0.75262140  0.72420353    -0.25900
S2490       S  0.56481476  0.64290559  0.72397051    -0.03100
C2491       C  0.55541760  0.63021133  0.68971848    -0.16600
C2492       C  0.56065009  0.65056489  0.66950253    -0.14600
H2493       H  0.58098400  0.70279212  0.64415735     0.20800
H2494       H  0.59163442  0.70029832  0.74983357     0.16800
H2495       H  0.61903554  0.75666625  0.74663922     0.19400
H2496       H  0.55667851  0.64655060  0.64687081     0.12700
C2497       C  0.76636821  0.88337692  0.68150354     0.16600
C2498       C  0.79082828  0.90202078  0.66674399    -0.32500
C2499       C  0.81671435  0.90908121  0.67920206     0.21000
C2500       C  0.81835377  0.89800607  0.70510715     0.03200
C2501       C  0.79387893  0.87950324  0.72001177    -0.22200
C2502       C  0.76797710  0.87256632  0.70760611     0.12300
S2503       S  0.73291210  0.87292842  0.67048065    -0.05900
C2504       C  0.72103163  0.85416884  0.70157139    -0.09300
C2505       C  0.74201770  0.85580562  0.71920036    -0.25900
S2506       S  0.85193142  0.90872445  0.71600842    -0.03100
C2507       C  0.86382502  0.92841794  0.68534849    -0.16600
C2508       C  0.84265444  0.92666662  0.66794953    -0.14600
H2509       H  0.78975438  0.91077218  0.64648456     0.20800
H2510       H  0.79496090  0.87097468  0.74041239     0.16800
H2511       H  0.73844171  0.84602351  0.73994171     0.19400
H2512       H  0.84590993  0.93720820  0.64771100     0.12700
C2513       C  0.61806960  0.91634094  0.72114617     0.16600
C2514       C  0.61679639  0.93819313  0.70755868    -0.32500
C2515       C  0.59089237  0.93177022  0.69573576     0.21000
C2516       C  0.56825548  0.90427356  0.69471833     0.03200
C2517       C  0.57034853  0.88209460  0.70611886    -0.22200
C2518       C  0.59522655  0.88900351  0.72068486     0.12300
S2519       S  0.64248496  0.92217894  0.74657859    -0.05900
C2520       C  0.61935144  0.88906087  0.76010015    -0.09300
C2521       C  0.59704970  0.87270622  0.74153798    -0.25900
S2522       S  0.53722900  0.90127064  0.68507470    -0.03100
C2523       C  0.55452190  0.93748218  0.68388522    -0.16600
C2524       C  0.58319145  0.95097045  0.68900514    -0.14600
H2525       H  0.63376077  0.95985831  0.70999682     0.20800
H2526       H  0.55195227  0.86113334  0.70745492     0.16800
H2527       H  0.57949848  0.85202074  0.74666896     0.19400
H2528       H  0.59707047  0.97360156  0.69048571     0.12700
C2529       C  0.58642213  0.68075225  0.83500865     0.16600
C2530       C  0.60507808  0.70458262  0.81934706    -0.32500
C2531       C  0.61308642  0.73106353  0.83080240     0.21000
C2532       C  0.60295654  0.73394192  0.85662233     0.03200
C2533       C  0.58403346  0.71002576  0.87220647    -0.22200
C2534       C  0.57611844  0.68345157  0.86080241     0.12300
S2535       S  0.57531493  0.64680645  0.82542626    -0.05900
C2536       C  0.55671439  0.63602332  0.85662293    -0.09300
C2537       C  0.55885233  0.65780282  0.87319035    -0.25900
S2538       S  0.61528753  0.76823707  0.86646440    -0.03100
C2539       C  0.63402751  0.77856827  0.83532719    -0.16600
C2540       C  0.63088402  0.75649635  0.81859943    -0.14600
H2541       H  0.61328052  0.70259447  0.79924223     0.20800
H2542       H  0.57602150  0.71202631  0.89242126     0.16800
H2543       H  0.54908335  0.65516049  0.89368674     0.19400
H2544       H  0.64067609  0.75901265  0.79810543     0.12700
C2545       C  0.76624511  0.89897863  0.85437866     0.16600
C2546       C  0.79064667  0.91249717  0.87131037    -0.32500
C2547       C  0.81653520  0.92264538  0.85777275     0.21000
C2548       C  0.81821199  0.91961275  0.82869131     0.03200
C2549       C  0.79388235  0.90675899  0.81166428    -0.22200
C2550       C  0.76801537  0.89655393  0.82522380     0.12300
S2551       S  0.73256596  0.88293402  0.86686880    -0.05900
C2552       C  0.72079507  0.87335044  0.83231419    -0.09300
C2553       C  0.74212526  0.88216136  0.81249961    -0.25900
S2554       S  0.85149114  0.93141497  0.81679012    -0.03100
C2555       C  0.86323595  0.94071195  0.85135800    -0.16600
C2556       C  0.84234466  0.93508582  0.87078286    -0.14600
H2557       H  0.78947768  0.91431478  0.89413234     0.20800
H2558       H  0.79497787  0.90411183  0.78896907     0.16800
H2559       H  0.73883929  0.87714443  0.78999718     0.19400
H2560       H  0.84574964  0.93901032  0.89347171     0.12700
C2561       C  0.59426469  0.93699651  0.85109304     0.16600
C2562       C  0.61733345  0.93591009  0.84123855    -0.32500
C2563       C  0.61199980  0.91082092  0.82832565     0.21000
C2564       C  0.58526697  0.88708901  0.82767435     0.03200
C2565       C  0.56249045  0.88751071  0.83965808    -0.22200
C2566       C  0.56740013  0.91337585  0.85012141     0.12300
S2567       S  0.59547737  0.96748375  0.85938015    -0.05900
C2568       C  0.55935228  0.94851571  0.86051022    -0.09300
C2569       C  0.54720746  0.91981525  0.85597033    -0.25900
S2570       S  0.58141392  0.86205277  0.80407196    -0.03100
C2571       C  0.61466952  0.88572480  0.79149781    -0.16600
C2572       C  0.62951470  0.90908294  0.80926481    -0.14600
H2573       H  0.63784019  0.95490708  0.84001372     0.20800
H2574       H  0.54131593  0.86966376  0.83723563     0.16800
H2575       H  0.52481344  0.90492612  0.85466567     0.19400
H2576       H  0.64999998  0.92702978  0.80442350     0.12700
C2577       C  0.89099876  0.57377399  0.59208737     0.16600
C2578       C  0.86733612  0.57653692  0.59058495    -0.32500
C2579       C  0.87115468  0.60220117  0.58069895     0.21000
C2580       C  0.89725417  0.62402030  0.57243639     0.03200
C2581       C  0.92096412  0.62136313  0.57413110    -0.22200
C2582       C  0.91723551  0.59584097  0.58430914     0.12300
S2583       S  0.89080178  0.54428235  0.60317221    -0.05900
C2584       C  0.92652523  0.56202545  0.59767237    -0.09300
C2585       C  0.93774689  0.58931371  0.58773318    -0.25900
S2586       S  0.89746568  0.65347465  0.56140725    -0.03100
C2587       C  0.86191912  0.63659402  0.56843249    -0.16600
C2588       C  0.85090873  0.60920943  0.57852491    -0.14600
H2589       H  0.84686224  0.55947345  0.59695566     0.20800
H2590       H  0.94146654  0.63851722  0.56797170     0.16800
H2591       H  0.95968143  0.60349631  0.58284933     0.19400
H2592       H  0.82944089  0.59519486  0.58498462     0.12700
C2593       C  0.87358208  0.77513231  0.56803046     0.16600
C2594       C  0.87756839  0.80230999  0.56833199    -0.32500
C2595       C  0.90318726  0.82443478  0.57926842     0.21000
C2596       C  0.92390496  0.81968315  0.58928666     0.03200
C2597       C  0.92020244  0.79271791  0.58819521    -0.22200
C2598       C  0.89455747  0.77061824  0.57750965     0.12300
S2599       S  0.84325328  0.74501686  0.55807095    -0.05900
C2600       C  0.85905306  0.72597787  0.56637661    -0.09300
C2601       C  0.88650224  0.74272095  0.57648784    -0.25900
S2602       S  0.95222201  0.84847134  0.60447814    -0.03100
C2603       C  0.93620114  0.86725555  0.59706174    -0.16600
C2604       C  0.91039866  0.85195101  0.58321157    -0.14600
H2605       H  0.86110223  0.80588551  0.56124253     0.20800
H2606       H  0.93623755  0.78893295  0.59628489     0.16800
H2607       H  0.89971859  0.73499371  0.58397629     0.19400
H2608       H  0.89698459  0.86011112  0.57780442     0.12700
C2609       C  0.72436482  0.59996943  0.59210729     0.16600
C2610       C  0.70026899  0.58027539  0.60662978    -0.32500
C2611       C  0.67515755  0.57933622  0.60044862     0.21000
C2612       C  0.67383188  0.59684053  0.58020206     0.03200
C2613       C  0.69810069  0.61674738  0.56565335    -0.22200
C2614       C  0.72348331  0.61810007  0.57234709     0.12300
S2615       S  0.75675859  0.60456833  0.59746209    -0.05900
C2616       C  0.76980918  0.63171871  0.57322219    -0.09300
C2617       C  0.74966846  0.63666039  0.56160230    -0.25900
S2618       S  0.64106297  0.59219647  0.57613275    -0.03100
C2619       C  0.62941628  0.56695424  0.60247207    -0.16600
C2620       C  0.64988169  0.56231751  0.61332772    -0.14600
H2621       H  0.70115625  0.56650225  0.62246109     0.20800
H2622       H  0.69731662  0.63082867  0.55014631     0.16800
H2623       H  0.75398754  0.65302695  0.54633402     0.19400
H2624       H  0.64654076  0.54745164  0.63005609     0.12700
C2625       C  0.86929579  0.60047676  0.98068918     0.16600
C2626       C  0.87148943  0.57637783  0.97906831    -0.32500
C2627       C  0.89676143  0.57977503  0.96893093     0.21000
C2628       C  0.91909960  0.60613670  0.96170521     0.03200
C2629       C  0.91699426  0.63016567  0.96366647    -0.22200
C2630       C  0.89150720  0.62662924  0.97293171     0.12300
S2631       S  0.83963938  0.60060760  0.98953493    -0.05900
C2632       C  0.85706622  0.63625800  0.98193066    -0.09300
C2633       C  0.88476808  0.64711895  0.97372936    -0.25900
S2634       S  0.94773856  0.60602180  0.94931608    -0.03100
C2635       C  0.92933553  0.56995309  0.95312374    -0.16600
C2636       C  0.90248920  0.55880694  0.96393318    -0.14600
H2637       H  0.85394290  0.55577636  0.98447121     0.20800
H2638       H  0.93419100  0.65063080  0.95732293     0.16800
H2639       H  0.89900411  0.66852688  0.96693470     0.19400
H2640       H  0.88793544  0.53662645  0.96774867     0.12700
C2641       C  0.89647723  0.77456935  0.95280023     0.16600
C2642       C  0.91736659  0.79909071  0.93955839    -0.32500
C2643       C  0.91780632  0.82418156  0.94476546     0.21000
C2644       C  0.89869673  0.82498606  0.96287783     0.03200
C2645       C  0.87766803  0.80038074  0.97601959    -0.22200
C2646       C  0.87681967  0.77511685  0.97027235     0.12300
S2647       S  0.89214521  0.74204377  0.94861017    -0.05900
C2648       C  0.86312077  0.72872684  0.97018368    -0.09300
C2649       C  0.85659639  0.75010682  0.48226388    -0.25900
S2650       S  0.90269323  0.85753974  0.96619259    -0.03100
C2651       C  0.92982540  0.86994158  0.94229189    -0.16600
C2652       C  0.93564369  0.84989392  0.93277710    -0.14600
H2653       H  0.93235145  0.79854431  0.92545474     0.20800
H2654       H  0.86099859  0.80210668  0.49148124     0.16800
H2655       H  0.83877613  0.74541633  0.49528776     0.19400
H2656       H  0.95172336  0.85379939  0.91752382     0.12700
C2657       C  0.72356075  0.60883857  0.94747895     0.16600
C2658       C  0.69860271  0.58890234  0.93375996    -0.32500
C2659       C  0.67414733  0.58907855  0.94002506     0.21000
C2660       C  0.67442457  0.60817760  0.95925335     0.03200
C2661       C  0.69959218  0.62858231  0.97258026    -0.22200
C2662       C  0.72417008  0.62848470  0.96617498     0.12300
S2663       S  0.75497454  0.60930968  0.45100990    -0.05900
C2664       C  0.76960844  0.63923816  0.96676427    -0.09300
C2665       C  0.75070787  0.64630358  0.97707903    -0.25900
S2666       S  0.64210818  0.60391514  0.96479846    -0.03100
C2667       C  0.62830218  0.57640505  0.94066795    -0.16600
C2668       C  0.64784413  0.57106485  0.92902997    -0.14600
H2669       H  0.69764680  0.56955353  0.42892947     0.20800
H2670       H  0.69993905  0.64362394  0.98749565     0.16800
H2671       H  0.75601791  0.66321518  0.99204568     0.19400
H2672       H  0.64297802  0.55461688  0.91360051     0.12700
loop_ 
_geom_bond_atom_site_label_1 
_geom_bond_atom_site_label_2 
_geom_bond_distance 
_geom_bond_site_symmetry_2 
_ccdc_geom_bond_type 
C1            C2   1.406       .  A
C1            C6   1.409       .  A
C1          C628   1.496       .  S
C2            C3   1.404       .  A
C2            H7   1.083       .  S
C3            C4   1.405       .  A
C3          C660   1.475       .  S
C4            C5   1.406       .  A
C4            H8   1.084       .  S
C5            C6   1.405       .  A
C5          C644   1.480       .  S
C6            H9   1.081       .  S
C10          C11   1.408       .  A
C10          C15   1.411       .  A
C10         C249   1.502       .  S
C11          C12   1.404       .  A
C11          H16   1.080       .  S
C12          C13   1.406       .  A
C12         C278   1.488       .  S
C13          C14   1.409       .  A
C13          H17   1.082       .  S
C14          C15   1.412       .  A
C14         C262   1.495       .  S
C15          H18   1.080       .  S
C19          C20   1.406       .  A
C19          C24   1.405       .  A
C19          C28   1.496       .  S
C20          C21   1.400       .  A
C20          H25   1.079       .  S
C21          C22   1.399       .  A
C21         C214   1.474       .  S
C22          C23   1.401       .  A
C22          H26   1.084       .  S
C23          C24   1.401       .  A
C23         C201   1.462       .  S
C24          H27   1.083       .  S
C28          C29   1.406       .  A
C28          C33   1.405       .  A
C29          C30   1.400       .  A
C29          H34   1.080       .  S
C30          C31   1.403       .  A
C30         C150   1.478       .  S
C31          C32   1.407       .  A
C31          H35   1.083       .  S
C32          C33   1.403       .  A
C32         C166   1.478       .  S
C33          H36   1.083       .  S
C37          C74   1.454       .  S
C37         C230   1.469       .  S
C37          N55   1.351       .  A
N38          N55   1.326       .  A
N38          N60   1.322       .  A
N38       Co1411   2.094   1_455  S
C39          C77   1.453       .  S
C39          H84   1.081       .  S
C39          N64   1.333       .  A
H40          C81   1.082       .  S
C41         C379   1.454       .  S
C41          H70   1.082       .  S
C41          N65   1.338       .  A
Co42         N50   2.100       .  S
Co42         N82   2.106       .  S
Co42         N58   2.095       .  S
Co42        N728   2.078   1_545  S
Co42      Cl1422   2.455   1_455  S
N43          C81   1.344       .  A
N43          N50   1.320       .  A
N43         Co44   2.087       .  S
Co44         N64   2.068       .  S
Co44       N1383   2.085       .  S
Co44       N1387   2.085   1_455  S
Co44      Cl1422   2.449   1_455  S
C45         C140   1.465       .  S
C45         C375   1.455   1_554  S
C45        N2421   1.352   1_554  A
N46          N53   1.320       .  A
N46          N76   1.328       .  A
N46         Co79   2.090       .  S
N47         N733   1.320   1_545  A
N47        N1419   1.324       .  A
N47       Co1380   2.091       .  S
N48          C77   1.353       .  A
N48          N58   1.326       .  A
H49          C74   1.081       .  S
N50          N71   1.328       .  A
N51          N69   1.320       .  A
N51          N56   1.322       .  A
N51       Co1380   2.078       .  S
C52          C80   1.466       .  S
C52         C297   1.476       .  S
C52          N56   1.347       .  A
N53          C68   1.347       .  A
N53         Co75   2.109       .  S
C54        C1393   1.466   1_455  S
C54          H88   1.082       .  S
C54          N82   1.347       .  A
C57         C130   1.483       .  S
C57        C1390   1.465       .  S
C57         N746   1.352   1_545  A
N58          N64   1.321       .  A
N59          C85   1.342       .  A
N59          N61   1.321       .  A
N59         Co75   2.090       .  S
N60          C74   1.338       .  A
N60        Co710   2.079       .  S
N61          N89   1.321       .  A
N61         Co79   2.071       .  S
H62          C85   1.082       .  S
H63          C80   1.082       .  S
N65         N715   1.320       .  A
N65         Co79   2.075       .  S
N66          N78   1.328       .  A
N66        N2086   1.323       .  A
N66         Co75   2.100       .  S
C67          C81   1.462       .  S
C67         C329   1.482       .  S
C67          N71   1.353       .  A
C68          C87   1.467       .  S
C68          H72   1.081       .  S
N69          C80   1.348       .  A
N69        Co747   2.099   1_545  S
C73          C85   1.461       .  S
C73         C217   1.464       .  S
C73          N89   1.347       .  A
Co75       N1374   2.091       .  S
Co75       Cl754   2.452       .  S
N76          C87   1.351       .  A
C77         C198   1.465       .  S
N78         C725   1.351       .  A
Co79        N737   2.095       .  S
Co79       Cl754   2.455       .  S
N82        N2070   1.321   1_445  A
N83        C2383   1.350   1_445  A
N83        N1383   1.324       .  A
Cl86      Co1378   2.451       .  S
Cl86      Co1380   2.450       .  S
Cl86       Co743   2.449   1_545  S
Cl86       Co747   2.459   1_545  S
C87         C313   1.486       .  S
C90         C127   1.461       .  S
C90         C281   1.474       .  S
C90         N108   1.351       .  A
N91         N108   1.326       .  A
N91         N113   1.320       .  A
N91        Co128   2.088       .  S
C92         C798   1.467       .  S
C92         H137   1.082       .  S
C92         N117   1.347       .  A
H93        C1470   1.081       .  S
C94          C98   1.462       .  S
C94         H123   1.082       .  S
C94         N118   1.345       .  A
Co95        N113   2.088       .  S
Co95        N135   2.090       .  S
Co95        N111   2.098       .  S
Co95        N771   2.092   1_545  S
Co95      Cl1475   2.454   1_445  S
N96         C134   1.340       .  A
N96         N103   1.319       .  A
N96       Co1433   2.082   1_455  S
Co97        N100   2.098       .  S
Co97        N117   2.109       .  S
Co97        N104   2.113       .  S
Co97       N1432   2.091       .  S
Co97       Cl807   2.457       .  S
C98         C265   1.476       .  S
C98         N136   1.350       .  A
N99         N129   1.324       .  A
N99        N2110   1.320       .  A
N99        Co132   2.088       .  S
N100        N118   1.321       .  A
N100        N136   1.326       .  A
N101       C1466   1.352   1_445  A
N101        N111   1.329       .  A
H102        C127   1.082       .  S
N103        N124   1.326       .  A
N103       Co763   2.085       .  S
N104        N122   1.322       .  A
N104        N109   1.331       .  A
C105        C133   1.451       .  S
C105        C169   1.474       .  S
C105        N109   1.358       .  A
N106        C121   1.338       .  A
N106       N2103   1.320   1_445  A
N106       Co128   2.078       .  S
C107        C110   1.462       .  S
C107        H141   1.082       .  S
C107        N135   1.342       .  A
C110        C153   1.468       .  S
C110        N131   1.347       .  A
N111       N2121   1.321   1_445  A
N112        C138   1.344       .  A
N112        N114   1.321       .  A
N112      Co1464   2.091       .  S
N113        C127   1.342       .  A
N114        N142   1.326       .  A
N114       Co800   2.092   1_545  S
H115        C138   1.081       .  S
H116        C133   1.081       .  S
N117       N2115   1.322       .  A
N118       Co132   2.089       .  S
N119        N131   1.321       .  A
N119        N135   1.321       .  A
N119       Co128   2.077       .  S
C120        C134   1.456       .  S
C120        C185   1.470       .  S
C120        N124   1.350       .  A
C121       C2144   1.455   1_445  S
C121        H125   1.082       .  S
N122        C133   1.333       .  A
N122       Co132   2.070       .  S
C126        C138   1.462       .  S
C126        C246   1.477       .  S
C126        N142   1.350       .  A
Co128      N1448   2.095   1_455  S
Co128     Cl1475   2.450   1_445  S
N129        C140   1.351       .  A
C130        C760   1.463   1_545  S
C130       N1437   1.353       .  A
Co132       N782   2.091       .  S
Co132      Cl807   2.453       .  S
C134       H1429   1.081   1_455  S
Cl139     Co1431   2.454       .  S
Cl139      Co765   2.450   1_545  S
Cl139     Co1464   2.457       .  S
Cl139      Co800   2.453   1_545  S
C140       C2125   1.456       .  S
C143        C148   1.386       .  A
C143        C144   1.401       .  A
C143        S149   1.713       .  A
C144        C145   1.404       .  A
C144        H155   1.083       .  S
C145        C154   1.367       .  A
C145        C146   1.387       .  A
C146        C147   1.399       .  A
C146        S152   1.709       .  A
C147        C148   1.402       .  A
C147        H156   1.082       .  S
C148        C151   1.364       .  A
S149        C150   1.721       .  A
C150        C151   1.389       .  A
C151        H157   1.083       .  S
S152        C153   1.721       .  A
C153        C154   1.386       .  A
C154        H158   1.083       .  S
C159        C164   1.386       .  A
C159        C160   1.400       .  A
C159        S165   1.713       .  A
C160        C161   1.404       .  A
C160        H171   1.083       .  S
C161        C170   1.366       .  A
C161        C162   1.386       .  A
C162        C163   1.401       .  A
C162        S168   1.715       .  A
C163        C164   1.405       .  A
C163        H172   1.082       .  S
C164        C167   1.365       .  A
S165        C166   1.722       .  A
C166        C167   1.390       .  A
C167        H173   1.082       .  S
S168        C169   1.722       .  A
C169        C170   1.388       .  A
C170        H174   1.083       .  S
C175        C180   1.386       .  A
C175        C176   1.401       .  A
C175        S181   1.700       .  A
C176        C177   1.401       .  A
C176        H187   1.083       .  S
C177        C186   1.371       .  A
C177        C178   1.388       .  A
C178        C179   1.400       .  A
C178        S184   1.705       .  A
C179        C180   1.402       .  A
C179        H188   1.083       .  S
C180        C183   1.370       .  A
S181        C182   1.730       .  A
C182        C183   1.391       .  A
C182        C233   1.493       .  S
C183        H189   1.083       .  S
S184        C185   1.720       .  A
C185        C186   1.385       .  A
C186        H190   1.083       .  S
C191        C196   1.387       .  A
C191        C192   1.397       .  A
C191        S197   1.708       .  A
C192        C193   1.400       .  A
C192        H203   1.082       .  S
C193        C202   1.360       .  A
C193        C194   1.388       .  A
C194        C195   1.399       .  A
C194        S200   1.713       .  A
C195        C196   1.402       .  A
C195        H204   1.082       .  S
C196        C199   1.363       .  A
S197        C198   1.720       .  A
C198        C199   1.386       .  A
C199        H205   1.082       .  S
S200        C201   1.717       .  A
C201        C202   1.383       .  A
C202        H206   1.083       .  S
C207        C212   1.386       .  A
C207        C208   1.399       .  A
C207        S213   1.710       .  A
C208        C209   1.402       .  A
C208        H219   1.082       .  S
C209        C218   1.364       .  A
C209        C210   1.387       .  A
C210        C211   1.398       .  A
C210        S216   1.708       .  A
C211        C212   1.401       .  A
C211        H220   1.082       .  S
C212        C215   1.362       .  A
S213        C214   1.720       .  A
C214        C215   1.388       .  A
C215        H221   1.083       .  S
S216        C217   1.720       .  A
C217        C218   1.385       .  A
C218        H222   1.083       .  S
C223        C228   1.387       .  A
C223        C224   1.400       .  A
C223        S229   1.704       .  A
C224        C225   1.402       .  A
C224        H235   1.082       .  S
C225        C234   1.370       .  A
C225        C226   1.385       .  A
C226        C227   1.402       .  A
C226        S232   1.701       .  A
C227        C228   1.402       .  A
C227        H236   1.082       .  S
C228        C231   1.372       .  A
S229        C230   1.721       .  A
C230        C231   1.385       .  A
C231        H237   1.083       .  S
S232        C233   1.732       .  A
C233        C234   1.392       .  A
C234        H238   1.082       .  S
C239        C244   1.387       .  A
C239        C240   1.402       .  A
C239        S245   1.709       .  A
C240        C241   1.404       .  A
C240        H251   1.083       .  S
C241        C250   1.372       .  A
C241        C242   1.383       .  A
C242        C243   1.405       .  A
C242        S248   1.710       .  A
C243        C244   1.406       .  A
C243        H252   1.083       .  S
C244        C247   1.375       .  A
S245        C246   1.723       .  A
C246        C247   1.389       .  A
C247        H253   1.083       .  S
S248        C249   1.732       .  A
C249        C250   1.396       .  A
C250        H254   1.081       .  S
C255        C260   1.385       .  A
C255        C256   1.407       .  A
C255        S261   1.712       .  A
C256        C257   1.407       .  A
C256        H267   1.083       .  S
C257        C266   1.377       .  A
C257        C258   1.387       .  A
C258        C259   1.403       .  A
C258        S264   1.710       .  A
C259        C260   1.404       .  A
C259        H268   1.083       .  S
C260        C263   1.374       .  A
S261        C262   1.730       .  A
C262        C263   1.392       .  A
C263        H269   1.082       .  S
S264        C265   1.722       .  A
C265        C266   1.389       .  A
C266        H270   1.083       .  S
C271        C276   1.386       .  A
C271        C272   1.402       .  A
C271        S277   1.704       .  A
C272        C273   1.401       .  A
C272        H283   1.084       .  S
C273        C282   1.372       .  A
C273        C274   1.387       .  A
C274        C275   1.405       .  A
C274        S280   1.710       .  A
C275        C276   1.405       .  A
C275        H284   1.084       .  S
C276        C279   1.376       .  A
S277        C278   1.727       .  A
C278        C279   1.391       .  A
C279        H285   1.083       .  S
S280        C281   1.724       .  A
C281        C282   1.386       .  A
C282        H286   1.084       .  S
C287        C292   1.385       .  A
C287        C288   1.408       .  A
C287        S293   1.710       .  A
C288        C289   1.407       .  A
C288        H299   1.083       .  S
C289        C298   1.379       .  A
C289        C290   1.387       .  A
C290        C291   1.401       .  A
C290        S296   1.704       .  A
C291        C292   1.401       .  A
C291        H300   1.083       .  S
C292        C295   1.372       .  A
S293        C294   1.732       .  A
C294        C295   1.391       .  A
C294        C335   1.495       .  S
C295        H301   1.082       .  S
S296        C297   1.722       .  A
C297        C298   1.390       .  A
C298        H302   1.083       .  S
C303        C308   1.385       .  A
C303        C304   1.404       .  A
C303        S309   1.706       .  A
C304        C305   1.404       .  A
C304        H315   1.083       .  S
C305        C314   1.377       .  A
C305        C306   1.386       .  A
C306        C307   1.411       .  A
C306        S312   1.716       .  A
C307        C308   1.410       .  A
C307        H650   1.083       .  S
C308        C645   1.382       .  A
S309        C310   1.728       .  A
C310        C645   1.395       .  A
C310        C339   1.496       .  S
C311        C642   1.378       .  A
C311        C644   1.389       .  A
C311        H317   1.082       .  S
S312        C313   1.729       .  A
C313        C314   1.388       .  A
C314        H318   1.083       .  S
H316        C641   1.083       .  S
C319        C324   1.386       .  A
C319        C320   1.404       .  A
C319        S659   1.707       .  A
C320        C321   1.404       .  A
C320        H665   1.082       .  S
C321        C330   1.376       .  A
C321        C322   1.386       .  A
C322        C323   1.408       .  A
C322        S328   1.713       .  A
C323        C324   1.407       .  A
C323        H332   1.082       .  S
C324        C327   1.379       .  A
S325        C653   1.703       .  A
S325        C660   1.721       .  A
C326        C327   1.390       .  A
C326        C337   1.487       .  S
C326        S659   1.727       .  A
C327        H333   1.081       .  S
S328        C329   1.727       .  A
C329        C330   1.388       .  A
C330        H334   1.083       .  S
H331        C654   1.082       .  S
C335        C336   1.405       .  A
C335        C340   1.409       .  A
C336        C337   1.405       .  A
C336        H341   1.083       .  S
C337        C338   1.410       .  A
C338        C339   1.412       .  A
C338        H342   1.083       .  S
C339        C340   1.411       .  A
C340        H343   1.082       .  S
C344        C345   1.408       .  A
C344        C349   1.410       .  A
C344        C583   1.500       .  S
C345        C346   1.405       .  A
C345        H350   1.080       .  S
C346        C347   1.407       .  A
C346        C612   1.488       .  S
C347        C348   1.410       .  A
C347        H351   1.082       .  S
C348        C349   1.410       .  A
C348        C596   1.495       .  S
C349        H352   1.081       .  S
C353        C354   1.404       .  A
C353        C358   1.407       .  A
C353        C362   1.502       .  S
C354        C355   1.402       .  A
C354        H359   1.082       .  S
C355        C356   1.406       .  A
C355        C548   1.475       .  S
C356        C357   1.403       .  A
C356        H360   1.084       .  S
C357        C358   1.399       .  A
C357        C535   1.472       .  S
C358        H361   1.080       .  S
C362        C363   1.406       .  A
C362        C367   1.410       .  A
C363        C364   1.402       .  A
C363        H368   1.081       .  S
C364        C365   1.403       .  A
C364        C484   1.472       .  S
C365        C366   1.401       .  A
C365        H369   1.084       .  S
C366        C367   1.397       .  A
C366        C500   1.469       .  S
C367        H370   1.080       .  S
C371        C408   1.456       .  S
C371        C564   1.470       .  S
C371        N389   1.352       .  A
N372        N389   1.327       .  A
N372        N394   1.321       .  A
N372      Co1745   2.094   1_455  S
C373        C411   1.456       .  S
C373        H418   1.082       .  S
C373        N398   1.336       .  A
H374        C415   1.082       .  S
C375        H404   1.082       .  S
C375        N399   1.339       .  A
Co376      N1062   2.078   1_545  S
Co376       N384   2.095       .  S
Co376       N416   2.108       .  S
Co376       N392   2.098       .  S
Co376     Cl1756   2.454   1_455  S
N377        C415   1.342       .  A
N377        N384   1.319       .  A
N377       Co378   2.076       .  S
Co378      N1717   2.090       .  S
Co378       N398   2.079       .  S
Co378      N1721   2.077   1_455  S
Co378     Cl1756   2.447   1_455  S
C379        C474   1.455       .  S
C379       N2087   1.348       .  A
N380        N387   1.320       .  A
N380        N410   1.327       .  A
N380       Co413   2.089       .  S
N381       N1067   1.320   1_545  A
N381       N1753   1.324       .  A
N381      Co1714   2.091       .  S
N382        C411   1.354       .  A
N382        N392   1.327       .  A
H383        C408   1.081       .  S
N384        N405   1.325       .  A
N385        N403   1.319       .  A
N385        N390   1.324       .  A
N385      Co1714   2.085       .  S
C386        C414   1.464       .  S
C386        C631   1.476       .  S
C386        N390   1.349       .  A
N387        C402   1.342       .  A
N387       Co409   2.090       .  S
C388       C1727   1.467   1_455  S
C388        H422   1.082       .  S
C388        N416   1.347       .  A
C391       C1724   1.467       .  S
C391        C464   1.487       .  S
C391       N1080   1.352   1_545  A
N392        N398   1.321       .  A
N393        C419   1.346       .  A
N393        N395   1.322       .  A
N393       Co409   2.104       .  S
N394        C408   1.338       .  A
N394      Co1044   2.080       .  S
N395        N423   1.321       .  A
N395       Co413   2.073       .  S
H396        C419   1.082       .  S
H397        C414   1.082       .  S
N399       N1049   1.320       .  A
N399       Co413   2.077       .  S
N400        N412   1.328       .  A
N400       N2420   1.321       .  A
N400       Co409   2.095       .  S
C401        C415   1.459       .  S
C401        C663   1.474       .  S
C401        N405   1.351       .  A
C402        C421   1.462       .  S
C402        H406   1.081       .  S
N403        C414   1.346       .  A
N403      Co1081   2.093   1_545  S
C407        C419   1.466       .  S
C407        C551   1.470       .  S
C407        N423   1.345       .  A
Co409      N1708   2.101       .  S
Co409     Cl1088   2.459       .  S
N410        C421   1.351       .  A
C411        C532   1.472       .  S
N412       C1059   1.352       .  A
Co413      N1071   2.094       .  S
Co413     Cl1088   2.451       .  S
N416       N2404   1.322   1_445  A
N417       C2049   1.351   1_446  A
N417       N1717   1.325       .  A
Cl420     Co1712   2.451       .  S
Cl420     Co1714   2.450       .  S
Cl420     Co1077   2.450   1_545  S
Cl420     Co1081   2.460   1_545  S
C421        C647   1.478       .  S
C424        C461   1.462       .  S
C424        C615   1.479       .  S
C424        N442   1.351       .  A
N425        N442   1.327       .  A
N425        N447   1.320       .  A
N425       Co462   2.091       .  S
C426       C1132   1.463       .  S
C426        H471   1.082       .  S
C426        N451   1.345       .  A
H427       C1804   1.081       .  S
C428        C432   1.463       .  S
C428        H457   1.082       .  S
C428        N452   1.345       .  A
Co429       N447   2.093       .  S
Co429      N1105   2.089   1_545  S
Co429       N469   2.090       .  S
Co429       N445   2.093       .  S
Co429     Cl1809   2.452   1_445  S
N430        C468   1.337       .  A
N430        N437   1.321       .  A
N430      Co1767   2.081   1_455  S
Co431      N1766   2.080       .  S
Co431       N434   2.094       .  S
Co431       N451   2.098       .  S
Co431       N438   2.097       .  S
Co431     Cl1141   2.453       .  S
C432        C599   1.478       .  S
C432        N470   1.350       .  A
N433       N2444   1.320       .  A
N433        N463   1.322       .  A
N433       Co466   2.080       .  S
N434        N452   1.319       .  A
N434        N470   1.327       .  A
N435       C1800   1.350   1_445  A
N435        N445   1.327       .  A
H436        C461   1.082       .  S
N437        N458   1.329       .  A
N437      Co1097   2.098       .  S
N438        N456   1.321       .  A
N438        N443   1.327       .  A
C439        C467   1.456       .  S
C439        C503   1.471       .  S
C439        N443   1.354       .  A
N440        C455   1.338       .  A
N440       N2437   1.320   1_445  A
N440       Co462   2.073       .  S
C441        C444   1.462       .  S
C441        H475   1.082       .  S
C441        N469   1.343       .  A
C444        C487   1.466       .  S
C444        N465   1.346       .  A
N445       N2455   1.322   1_445  A
N446        C472   1.345       .  A
N446        N448   1.321       .  A
N446      Co1798   2.096       .  S
N447        C461   1.343       .  A
N448        N476   1.325       .  A
N448      Co1134   2.091   1_545  S
H449        C472   1.081       .  S
H450        C467   1.081       .  S
N451       N2449   1.321       .  A
N452       Co466   2.093       .  S
N453        N465   1.320       .  A
N453        N469   1.321       .  A
N453       Co462   2.071       .  S
C454        C468   1.455       .  S
C454        C519   1.474       .  S
C454        N458   1.353       .  A
C455       C2478   1.456   1_545  S
C455        H459   1.082       .  S
N456        C467   1.336       .  A
N456       Co466   2.074       .  S
C460        C472   1.464       .  S
C460        C580   1.477       .  S
C460        N476   1.349       .  A
Co462      N1782   2.094   1_455  S
Co462     Cl1809   2.455   1_445  S
N463        C474   1.348       .  A
C464       C1094   1.468   1_545  S
C464       N1771   1.351       .  A
Co466      N1116   2.091       .  S
Co466     Cl1141   2.451       .  S
C468       H1763   1.081   1_455  S
Cl473     Co1765   2.454       .  S
Cl473     Co1099   2.452   1_545  S
Cl473     Co1798   2.460       .  S
Cl473     Co1134   2.456   1_545  S
C474       C2459   1.455       .  S
C477        C482   1.387       .  A
C477        C478   1.399       .  A
C477        S483   1.712       .  A
C478        C479   1.402       .  A
C478        H489   1.083       .  S
C479        C488   1.364       .  A
C479        C480   1.387       .  A
C480        C481   1.400       .  A
C480        S486   1.710       .  A
C481        C482   1.403       .  A
C481        H490   1.084       .  S
C482        C485   1.364       .  A
S483        C484   1.719       .  A
C484        C485   1.388       .  A
C485        H491   1.084       .  S
S486        C487   1.721       .  A
C487        C488   1.385       .  A
C488        H492   1.083       .  S
C493        C498   1.387       .  A
C493        C494   1.400       .  A
C493        S499   1.712       .  A
C494        C495   1.403       .  A
C494        H505   1.083       .  S
C495        C504   1.367       .  A
C495        C496   1.387       .  A
C496        C497   1.400       .  A
C496        S502   1.710       .  A
C497        C498   1.403       .  A
C497        H506   1.083       .  S
C498        C501   1.366       .  A
S499        C500   1.719       .  A
C500        C501   1.386       .  A
C501        H507   1.084       .  S
S502        C503   1.722       .  A
C503        C504   1.387       .  A
C504        H508   1.083       .  S
C509        C514   1.386       .  A
C509        C510   1.404       .  A
C509        S515   1.701       .  A
C510        C511   1.403       .  A
C510        H521   1.082       .  S
C511        C520   1.376       .  A
C511        C512   1.387       .  A
C512        C513   1.399       .  A
C512        S518   1.702       .  A
C513        C514   1.401       .  A
C513        H522   1.083       .  S
C514        C517   1.370       .  A
S515        C516   1.731       .  A
C516        C517   1.392       .  A
C516        C567   1.494       .  S
C517        H523   1.083       .  S
S518        C519   1.721       .  A
C519        C520   1.387       .  A
C520        H524   1.083       .  S
C525        C530   1.386       .  A
C525        C526   1.399       .  A
C525        S531   1.709       .  A
C526        C527   1.402       .  A
C526        H537   1.083       .  S
C527        C536   1.365       .  A
C527        C528   1.387       .  A
C528        C529   1.402       .  A
C528        S534   1.714       .  A
C529        C530   1.405       .  A
C529        H538   1.083       .  S
C530        C533   1.369       .  A
S531        C532   1.721       .  A
C532        C533   1.388       .  A
C533        H539   1.082       .  S
S534        C535   1.720       .  A
C535        C536   1.386       .  A
C536        H540   1.084       .  S
C541        C546   1.386       .  A
C541        C542   1.401       .  A
C541        S547   1.715       .  A
C542        C543   1.404       .  A
C542        H553   1.083       .  S
C543        C552   1.367       .  A
C543        C544   1.387       .  A
C544        C545   1.399       .  A
C544        S550   1.711       .  A
C545        C546   1.403       .  A
C545        H554   1.084       .  S
C546        C549   1.363       .  A
S547        C548   1.721       .  A
C548        C549   1.389       .  A
C549        H555   1.084       .  S
S550        C551   1.721       .  A
C551        C552   1.387       .  A
C552        H556   1.083       .  S
C557        C562   1.387       .  A
C557        C558   1.400       .  A
C557        S563   1.704       .  A
C558        C559   1.402       .  A
C558        H569   1.082       .  S
C559        C568   1.370       .  A
C559        C560   1.385       .  A
C560        C561   1.402       .  A
C560        S566   1.701       .  A
C561        C562   1.402       .  A
C561        H570   1.082       .  S
C562        C565   1.372       .  A
S563        C564   1.721       .  A
C564        C565   1.385       .  A
C565        H571   1.083       .  S
S566        C567   1.733       .  A
C567        C568   1.393       .  A
C568        H572   1.082       .  S
C573        C578   1.387       .  A
C573        C574   1.402       .  A
C573        S579   1.708       .  A
C574        C575   1.403       .  A
C574        H585   1.083       .  S
C575        C584   1.372       .  A
C575        C576   1.384       .  A
C576        C577   1.405       .  A
C576        S582   1.709       .  A
C577        C578   1.406       .  A
C577        H586   1.083       .  S
C578        C581   1.376       .  A
S579        C580   1.723       .  A
C580        C581   1.389       .  A
C581        H587   1.083       .  S
S582        C583   1.732       .  A
C583        C584   1.395       .  A
C584        H588   1.081       .  S
C589        C594   1.385       .  A
C589        C590   1.405       .  A
C589        S595   1.710       .  A
C590        C591   1.406       .  A
C590        H601   1.083       .  S
C591        C600   1.376       .  A
C591        C592   1.387       .  A
C592        C593   1.406       .  A
C592        S598   1.713       .  A
C593        C594   1.406       .  A
C593        H602   1.083       .  S
C594        C597   1.375       .  A
S595        C596   1.728       .  A
C596        C597   1.394       .  A
C597        H603   1.082       .  S
S598        C599   1.724       .  A
C599        C600   1.388       .  A
C600        H604   1.083       .  S
C605        C610   1.386       .  A
C605        C606   1.401       .  A
C605        S611   1.705       .  A
C606        C607   1.402       .  A
C606        H617   1.085       .  S
C607        C616   1.373       .  A
C607        C608   1.387       .  A
C608        C609   1.408       .  A
C608        S614   1.714       .  A
C609        C610   1.408       .  A
C609        H618   1.084       .  S
C610        C613   1.379       .  A
S611        C612   1.726       .  A
C612        C613   1.392       .  A
C613        H619   1.083       .  S
S614        C615   1.727       .  A
C615        C616   1.386       .  A
C616        H620   1.084       .  S
C621        C626   1.384       .  A
C621        C622   1.407       .  A
C621        S627   1.710       .  A
C622        C623   1.407       .  A
C622        H633   1.083       .  S
C623        C632   1.378       .  A
C623        C624   1.387       .  A
C624        C625   1.400       .  A
C624        S630   1.704       .  A
C625        C626   1.400       .  A
C625        H634   1.083       .  S
C626        C629   1.370       .  A
S627        C628   1.733       .  A
C628        C629   1.392       .  A
C629        H635   1.081       .  S
S630        C631   1.721       .  A
C631        C632   1.390       .  A
C632        H636   1.083       .  S
C637        C642   1.387       .  A
C637        C638   1.401       .  A
C637        S643   1.705       .  A
C638        C639   1.401       .  A
C638        H649   1.083       .  S
C639        C648   1.372       .  A
C639        C640   1.387       .  A
C640        C641   1.407       .  A
C640        S646   1.712       .  A
C641        C642   1.407       .  A
S643        C644   1.723       .  A
C645        H651   1.082       .  S
S646        C647   1.726       .  A
C647        C648   1.386       .  A
C648        H652   1.083       .  S
C653        C658   1.388       .  A
C653        C654   1.399       .  A
C654        C655   1.400       .  A
C655        C664   1.370       .  A
C655        C656   1.387       .  A
C656        C657   1.407       .  A
C656        S662   1.712       .  A
C657        C658   1.407       .  A
C657        H666   1.082   1_556  S
C658        C661   1.377       .  A
C660        C661   1.388       .  A
C661        H667   1.081   1_556  S
S662        C663   1.726       .  A
C663        C664   1.384       .  A
C664        H668   1.083       .  S
C669        C670   1.407       .  A
C669        C674   1.409       .  A
C669       C1296   1.499       .  S
C670        C671   1.404       .  A
C670        H675   1.081       .  S
C671        C672   1.404       .  A
C671       C1328   1.484       .  S
C672        C673   1.407       .  A
C672        H676   1.083       .  S
C673        C674   1.409       .  A
C673       C1312   1.485       .  S
C674        H677   1.080       .  S
C678        C679   1.409       .  A
C678        C683   1.407       .  A
C678        C917   1.497       .  S
C679        C680   1.408       .  A
C679        H684   1.081       .  S
C680        C681   1.410       .  A
C680        C946   1.490       .  S
C681        C682   1.407       .  A
C681        H685   1.083       .  S
C682        C683   1.406       .  A
C682        C930   1.485       .  S
C683        H686   1.083       .  S
C687        C688   1.403       .  A
C687        C692   1.406       .  A
C687        C696   1.505       .  S
C688        C689   1.402       .  A
C688        H693   1.080       .  S
C689        C690   1.404       .  A
C689        C882   1.481       .  S
C690        C691   1.408       .  A
C690        H694   1.083       .  S
C691        C692   1.405       .  A
C691        C869   1.478       .  S
C692        H695   1.082       .  S
C696        C697   1.408       .  A
C696        C701   1.410       .  A
C697        C698   1.400       .  A
C697        H702   1.079       .  S
C698        C699   1.401       .  A
C698        C818   1.477       .  S
C699        C700   1.405       .  A
C699        H703   1.083       .  S
C700        C701   1.405       .  A
C700        C834   1.482       .  S
C701        H704   1.082       .  S
C705        C742   1.456       .  S
C705        C898   1.470       .  S
C705        N723   1.352       .  A
N706        N723   1.327       .  A
N706        N728   1.322       .  A
N706      Co2079   2.097   1_455  S
C707        C745   1.455       .  S
C707        H752   1.082       .  S
C707        N732   1.337       .  A
H708        C749   1.082       .  S
C709       C1047   1.454       .  S
C709        H738   1.082       .  S
C709        N733   1.337       .  A
Co710       N718   2.089       .  S
Co710       N750   2.097       .  S
Co710       N726   2.103       .  S
Co710     Cl2090   2.455   1_455  S
N711        C749   1.345       .  A
N711        N718   1.318       .  A
N711       Co712   2.084       .  S
Co712      N2051   2.094   1_455  S
Co712       N732   2.082       .  S
Co712      N2055   2.080   1_455  S
Co712     Cl2090   2.448   1_455  S
C713       C1043   1.455   1_554  S
C713        C808   1.461       .  S
C713       N1753   1.351   1_564  A
N714        N721   1.319       .  A
N714        N744   1.328       .  A
N714       Co747   2.090       .  S
N715       N2087   1.323       .  A
N715      Co2048   2.076       .  S
N716        C745   1.355       .  A
N716        N726   1.328       .  A
H717        C742   1.081   1_545  S
N718        N739   1.324       .  A
N719        N737   1.319       .  A
N719        N724   1.323       .  A
N719      Co2048   2.072       .  S
C720        C748   1.465       .  S
C720        C965   1.472       .  S
C720        N724   1.346       .  A
N721        C736   1.341       .  A
N721       Co743   2.086       .  S
C722       C2061   1.464   1_455  S
C722        H756   1.082       .  S
C722        N750   1.346       .  A
C725       C2058   1.466       .  S
C725        C798   1.485       .  S
N726        N732   1.322       .  A
N727        C753   1.342       .  A
N727        N729   1.323       .  A
N727       Co743   2.095       .  S
N728        C742   1.337       .  A
N729        N757   1.321       .  A
N729       Co747   2.075       .  S
H730        C753   1.082       .  S
H731        C748   1.081       .  S
N733       Co747   2.070       .  S
N734        N746   1.328       .  A
N734       N1418   1.321   1_565  A
N734       Co743   2.098       .  S
C735        C749   1.463       .  S
C735        C997   1.476       .  S
C735        N739   1.349       .  A
C736        C755   1.461       .  S
C736        H740   1.082       .  S
N737        C748   1.345       .  A
C741        C753   1.463       .  S
C741        C885   1.467       .  S
C741        N757   1.346       .  A
Co743      N2042   2.088       .  S
N744        C755   1.352       .  A
C745        C866   1.474       .  S
N750       N1402   1.321   1_455  A
N751       C1715   1.351   1_455  A
N751       N2051   1.325   1_455  A
Cl754     Co2046   2.457       .  S
Cl754     Co2048   2.448       .  S
C755        C981   1.478       .  S
C758        C795   1.459       .  S
C758        C949   1.479       .  S
C758        N776   1.354       .  A
N759        N776   1.328       .  A
N759        N781   1.320       .  A
N759       Co796   2.099       .  S
C760        H805   1.082       .  S
C760        N785   1.345       .  A
H761       C2138   1.081       .  S
C762        C766   1.466       .  S
C762        H791   1.082       .  S
C762        N786   1.348       .  A
Co763       N781   2.087       .  S
Co763       N803   2.086       .  S
Co763       N779   2.099       .  S
Co763     Cl2143   2.452   1_455  S
N764        C802   1.337       .  A
N764        N771   1.320       .  A
N764      Co2101   2.077   1_455  S
Co765      N2100   2.079       .  S
Co765       N768   2.093       .  S
Co765       N785   2.101       .  S
Co765       N772   2.095       .  S
C766        C933   1.480       .  S
C766        N804   1.349       .  A
N767       N1442   1.320   1_565  A
N767        N797   1.323       .  A
N767       Co800   2.088       .  S
N768        N786   1.320       .  A
N768        N804   1.324       .  A
N769       C2134   1.353   1_455  A
N769        N779   1.329       .  A
H770        C795   1.082       .  S
N771        N792   1.328       .  A
N772        N790   1.322       .  A
N772        N777   1.327       .  A
C773        C801   1.454       .  S
C773        C837   1.470       .  S
C773        N777   1.353       .  A
N774        C789   1.338       .  A
N774       N1435   1.321   1_455  A
N774       Co796   2.080       .  S
C775        C778   1.459       .  S
C775        H809   1.082       .  S
C775        N803   1.339       .  A
C778        C821   1.471       .  S
C778        N799   1.351       .  A
N779       N1453   1.320   1_455  A
N780        C806   1.343       .  A
N780        N782   1.320       .  A
N780      Co2132   2.087       .  S
N781        C795   1.341       .  A
N782        N810   1.326       .  A
H783        C806   1.081       .  S
H784        C801   1.081       .  S
N785       N1447   1.321   1_565  A
N786       Co800   2.093       .  S
N787        N799   1.325       .  A
N787        N803   1.322       .  A
N787       Co796   2.089       .  S
C788        C802   1.454       .  S
C788        C853   1.470       .  S
C788        N792   1.352       .  A
C789       C1476   1.457       .  S
C789        H793   1.082       .  S
N790        C801   1.336       .  A
N790       Co800   2.077       .  S
C794        C806   1.461       .  S
C794        C914   1.475       .  S
C794        N810   1.350       .  A
Co796      N2116   2.101   1_455  S
Co796     Cl2143   2.457   1_455  S
N797        C808   1.351       .  A
C798       N2105   1.351       .  A
C802       H2097   1.081   1_455  S
Cl807     Co2099   2.454       .  S
Cl807     Co2132   2.455       .  S
C808       C1457   1.455   1_565  S
C811        C816   1.386       .  A
C811        C812   1.404       .  A
C811        S817   1.714       .  A
C812        C813   1.406       .  A
C812        H823   1.083       .  S
C813        C822   1.372       .  A
C813        C814   1.387       .  A
C814        C815   1.398       .  A
C814        S820   1.705       .  A
C815        C816   1.400       .  A
C815        H824   1.083       .  S
C816        C819   1.364       .  A
S817        C818   1.722       .  A
C818        C819   1.387       .  A
C819        H825   1.083       .  S
S820        C821   1.721       .  A
C821        C822   1.388       .  A
C822        H826   1.083       .  S
C827        C832   1.386       .  A
C827        C828   1.401       .  A
C827        S833   1.711       .  A
C828        C829   1.404       .  A
C828        H839   1.083       .  S
C829        C838   1.367       .  A
C829        C830   1.387       .  A
C830        C831   1.401       .  A
C830        S836   1.712       .  A
C831        C832   1.404       .  A
C831        H840   1.082       .  S
C832        C835   1.368       .  A
S833        C834   1.724       .  A
C834        C835   1.390       .  A
C835        H841   1.083       .  S
S836        C837   1.721       .  A
C837        C838   1.387       .  A
C838        H842   1.083       .  S
C843        C848   1.386       .  A
C843        C844   1.402       .  A
C843        S849   1.700       .  A
C844        C845   1.402       .  A
C844        H855   1.083       .  S
C845        C854   1.373       .  A
C845        C846   1.388       .  A
C846        C847   1.399       .  A
C846        S852   1.702       .  A
C847        C848   1.401       .  A
C847        H856   1.083       .  S
C848        C851   1.370       .  A
S849        C850   1.730       .  A
C850        C851   1.392       .  A
C850        C901   1.493       .  S
C851        H857   1.083       .  S
S852        C853   1.720       .  A
C853        C854   1.385       .  A
C854        H858   1.083       .  S
C859        C864   1.387       .  A
C859        C860   1.399       .  A
C859        S865   1.711       .  A
C860        C861   1.402       .  A
C860        H871   1.083       .  S
C861        C870   1.364       .  A
C861        C862   1.386       .  A
C862        C863   1.403       .  A
C862        S868   1.715       .  A
C863        C864   1.406       .  A
C863        H872   1.083       .  S
C864        C867   1.369       .  A
S865        C866   1.721       .  A
C866        C867   1.389       .  A
C867        H873   1.083       .  S
S868        C869   1.723       .  A
C869        C870   1.388       .  A
C870        H874   1.083       .  S
C875        C880   1.385       .  A
C875        C876   1.403       .  A
C875        S881   1.717       .  A
C876        C877   1.407       .  A
C876        H887   1.082       .  S
C877        C886   1.368       .  A
C877        C878   1.387       .  A
C878        C879   1.396       .  A
C878        S884   1.706       .  A
C879        C880   1.399       .  A
C879        H888   1.082       .  S
C880        C883   1.359       .  A
S881        C882   1.724       .  A
C882        C883   1.388       .  A
C883        H889   1.082       .  S
S884        C885   1.718       .  A
C885        C886   1.388       .  A
C886        H890   1.083       .  S
C891        C896   1.387       .  A
C891        C892   1.400       .  A
C891        S897   1.704       .  A
C892        C893   1.402       .  A
C892        H903   1.082       .  S
C893        C902   1.370       .  A
C893        C894   1.385       .  A
C894        C895   1.403       .  A
C894        S900   1.702       .  A
C895        C896   1.403       .  A
C895        H904   1.082       .  S
C896        C899   1.373       .  A
S897        C898   1.721       .  A
C898        C899   1.386       .  A
C899        H905   1.083       .  S
S900        C901   1.732       .  A
C901        C902   1.392       .  A
C902        H906   1.082       .  S
C907        C912   1.387       .  A
C907        C908   1.403       .  A
C907        S913   1.708       .  A
C908        C909   1.404       .  A
C908        H919   1.083       .  S
C909        C918   1.373       .  A
C909        C910   1.384       .  A
C910        C911   1.404       .  A
C910        S916   1.707       .  A
C911        C912   1.405       .  A
C911        H920   1.083       .  S
C912        C915   1.374       .  A
S913        C914   1.723       .  A
C914        C915   1.388       .  A
C915        H921   1.083       .  S
S916        C917   1.731       .  A
C917        C918   1.394       .  A
C918        H922   1.082       .  S
C923        C928   1.386       .  A
C923        C924   1.410       .  A
C923        S929   1.719       .  A
C924        C925   1.411       .  A
C924        H935   1.083       .  S
C925        C934   1.381       .  A
C925        C926   1.387       .  A
C926        C927   1.400       .  A
C926        S932   1.705       .  A
C927        C928   1.401       .  A
C927        H936   1.083       .  S
C928        C931   1.370       .  A
S929        C930   1.728       .  A
C930        C931   1.386       .  A
C931        H937   1.083       .  S
S932        C933   1.722       .  A
C933        C934   1.393       .  A
C934        H938   1.082       .  S
C939        C944   1.386       .  A
C939        C940   1.404       .  A
C939        S945   1.708       .  A
C940        C941   1.404       .  A
C940        H951   1.085       .  S
C941        C950   1.374       .  A
C941        C942   1.387       .  A
C942        C943   1.405       .  A
C942        S948   1.712       .  A
C943        C944   1.406       .  A
C943        H952   1.085       .  S
C944        C947   1.377       .  A
S945        C946   1.729       .  A
C946        C947   1.391       .  A
C947        H953   1.084       .  S
S948        C949   1.724       .  A
C949        C950   1.389       .  A
C950        H954   1.084       .  S
C955        C960   1.384       .  A
C955        C956   1.401       .  A
C955        S961   1.701       .  A
C956        C957   1.401       .  A
C956        H967   1.083       .  S
C957        C966   1.372       .  A
C957        C958   1.387       .  A
C958        C959   1.404       .  A
C958        S964   1.707       .  A
C959        C960   1.404       .  A
C959        H968   1.083       .  S
C960        C963   1.374       .  A
S961        C962   1.730       .  A
C962        C963   1.396       .  A
C962       C1003   1.498       .  S
C963        H969   1.081       .  S
S964        C965   1.725       .  A
C965        C966   1.384       .  A
C966        H970   1.083       .  S
C971        C976   1.387       .  A
C971        C972   1.400       .  A
C971        S977   1.702       .  A
C972        C973   1.400       .  A
C972        H983   1.083       .  S
C973        C982   1.371       .  A
C973        C974   1.386       .  A
C974        C975   1.408       .  A
C974        S980   1.714       .  A
C975        C976   1.408       .  A
C975       H1318   1.083       .  S
C976       C1313   1.380       .  A
S977        C978   1.725       .  A
C978       C1313   1.392       .  A
C978       C1007   1.487       .  S
C979       C1310   1.376       .  A
C979       C1312   1.392       .  A
C979        H985   1.083       .  S
S980        C981   1.727       .  A
C981        C982   1.386       .  A
C982        H986   1.083       .  S
H984       C1309   1.083       .  S
C987        C992   1.387       .  A
C987        C988   1.402       .  A
C987       S1327   1.705       .  A
C988        C989   1.402       .  A
C988       H1333   1.083       .  S
C989        C998   1.371       .  A
C989        C990   1.387       .  A
C990        C991   1.407       .  A
C990        S996   1.714       .  A
C991        C992   1.407       .  A
C991       H1000   1.082       .  S
C992        C995   1.378       .  A
S993       C1321   1.701       .  A
S993       C1328   1.724       .  A
C994        C995   1.389       .  A
C994       C1005   1.485       .  S
C994       S1327   1.726       .  A
C995       H1001   1.082       .  S
S996        C997   1.725       .  A
C997        C998   1.386       .  A
C998       H1002   1.083       .  S
H999       C1322   1.083       .  S
C1003      C1004   1.407       .  A
C1003      C1008   1.407       .  A
C1004      C1005   1.404       .  A
C1004      H1009   1.081       .  S
C1005      C1006   1.408       .  A
C1006      C1007   1.409       .  A
C1006      H1010   1.083       .  S
C1007      C1008   1.408       .  A
C1008      H1011   1.080       .  S
C1012      C1013   1.412       .  A
C1012      C1017   1.414       .  A
C1012      C1251   1.505       .  S
C1013      C1014   1.406       .  A
C1013      H1018   1.080       .  S
C1014      C1015   1.406       .  A
C1014      C1280   1.490       .  S
C1015      C1016   1.407       .  A
C1015      H1019   1.083       .  S
C1016      C1017   1.411       .  A
C1016      C1264   1.494       .  S
C1017      H1020   1.081       .  S
C1021      C1022   1.408       .  A
C1021      C1026   1.405       .  A
C1021      C1030   1.508       .  S
C1022      C1023   1.407       .  A
C1022      H1027   1.082       .  S
C1023      C1024   1.406       .  A
C1023      C1216   1.481       .  S
C1024      C1025   1.401       .  A
C1024      H1028   1.083       .  S
C1025      C1026   1.402       .  A
C1025      C1203   1.478       .  S
C1026      H1029   1.077       .  S
C1030      C1031   1.410       .  A
C1030      C1035   1.407       .  A
C1031      C1032   1.407       .  A
C1031      H1036   1.080       .  S
C1032      C1033   1.409       .  A
C1032      C1152   1.488       .  S
C1033      C1034   1.404       .  A
C1033      H1037   1.083       .  S
C1034      C1035   1.401       .  A
C1034      C1168   1.480       .  S
C1035      H1038   1.080       .  S
C1039      C1076   1.454       .  S
C1039      C1232   1.473       .  S
C1039      N1057   1.354       .  A
N1040      N1057   1.329       .  A
N1040      N1062   1.321       .  A
N1040     Co2413   2.102   1_455  S
C1041      C1079   1.454       .  S
C1041      H1086   1.082       .  S
C1041      N1066   1.336       .  A
H1042      C1083   1.082       .  S
C1043      H1072   1.082       .  S
C1043      N1067   1.338       .  A
Co1044     N1052   2.084       .  S
Co1044     N1084   2.099       .  S
Co1044     N1060   2.095       .  S
Co1044    Cl2424   2.447   1_455  S
N1045      C1083   1.345       .  A
N1045      N1052   1.318       .  A
N1045     Co1046   2.079       .  S
Co1046     N2385   2.086       .  S
Co1046     N1066   2.073       .  S
Co1046     N2389   2.082   1_455  S
Co1046    Cl2424   2.451   1_455  S
C1047      C1142   1.460       .  S
C1047      N1419   1.351   1_565  A
N1048      N1055   1.319       .  A
N1048      N1078   1.327       .  A
N1048     Co1081   2.083       .  S
N1049      N2421   1.326       .  A
N1049     Co2382   2.093       .  S
N1050      C1079   1.351       .  A
N1050      N1060   1.324       .  A
H1051      C1076   1.081   1_545  S
N1052      N1073   1.323       .  A
N1053      N1071   1.319       .  A
N1053      N1058   1.323       .  A
N1053     Co2382   2.074       .  S
C1054      C1082   1.464       .  S
C1054      C1299   1.473       .  S
C1054      N1058   1.346       .  A
N1055      C1070   1.339       .  A
N1055     Co1077   2.084       .  S
C1056      C2395   1.465   1_455  S
C1056      H1090   1.082       .  S
C1056      N1084   1.347       .  A
C1059      C2392   1.463       .  S
C1059      C1132   1.480       .  S
N1060      N1066   1.323       .  A
N1061      C1087   1.342       .  A
N1061      N1063   1.323       .  A
N1061     Co1077   2.096       .  S
N1062      C1076   1.337       .  A
N1063      N1091   1.322       .  A
N1063     Co1081   2.077       .  S
H1064      C1087   1.082       .  S
H1065      C1082   1.081       .  S
N1067     Co1081   2.074       .  S
N1068      N1080   1.329       .  A
N1068      N1752   1.320   1_565  A
N1068     Co1077   2.096       .  S
C1069      C1083   1.462       .  S
C1069      C1331   1.472       .  S
C1069      N1073   1.348       .  A
C1070      C1089   1.459       .  S
C1070      H1074   1.081       .  S
N1071      C1082   1.345       .  A
C1075      C1087   1.461       .  S
C1075      C1219   1.465       .  S
C1075      N1091   1.347       .  A
Co1077     N2376   2.095       .  S
N1078      C1089   1.351       .  A
C1079      C1200   1.463       .  S
N1084      N1736   1.320   1_455  A
N1085      C1381   1.350   1_456  A
N1085      N2385   1.323       .  A
Cl1088    Co2380   2.449       .  S
Cl1088    Co2382   2.454       .  S
C1089      C1315   1.473       .  S
C1092      C1129   1.459       .  S
C1092      C1283   1.478       .  S
C1092      N1110   1.354       .  A
N1093      N1110   1.329       .  A
N1093      N1115   1.320       .  A
N1093     Co1130   2.096       .  S
C1094      H1139   1.082       .  S
C1094      N1119   1.348       .  A
H1095      C2472   1.081       .  S
C1096      C1100   1.467       .  S
C1096      H1125   1.082       .  S
C1096      N1120   1.349       .  A
Co1097     N1115   2.092       .  S
Co1097     N1137   2.108       .  S
Co1097     N1113   2.103       .  S
Co1097    Cl2477   2.460   1_455  S
N1098      C1136   1.342       .  A
N1098      N1105   1.321       .  A
N1098     Co2435   2.093   1_455  S
Co1099     N2434   2.079       .  S
Co1099     N1102   2.095       .  S
Co1099     N1119   2.109       .  S
Co1099     N1106   2.098       .  S
C1100      C1267   1.482       .  S
C1100      N1138   1.349       .  A
N1101      N1776   1.321   1_565  A
N1101      N1131   1.323       .  A
N1101     Co1134   2.093       .  S
N1102      N1120   1.320       .  A
N1102      N1138   1.325       .  A
N1103      C2468   1.354   1_455  A
N1103      N1113   1.330       .  A
H1104      C1129   1.082       .  S
N1105      N1126   1.326       .  A
N1106      N1124   1.322       .  A
N1106      N1111   1.326       .  A
C1107      C1135   1.458       .  S
C1107      C1171   1.473       .  S
C1107      N1111   1.353       .  A
N1108      C1123   1.339       .  A
N1108      N1769   1.321   1_455  A
N1108     Co1130   2.080       .  S
C1109      C1112   1.467       .  S
C1109      H1143   1.082       .  S
C1109      N1137   1.347       .  A
C1112      C1155   1.478       .  S
C1112      N1133   1.347       .  A
N1113      N1787   1.322   1_455  A
N1114      C1140   1.343       .  A
N1114      N1116   1.320       .  A
N1114     Co2466   2.085       .  S
N1115      C1129   1.341       .  A
N1116      N1144   1.326       .  A
H1117      C1140   1.081       .  S
H1118      C1135   1.081       .  S
N1119      N1781   1.321   1_565  A
N1120     Co1134   2.098       .  S
N1121      N1133   1.324       .  A
N1121      N1137   1.322       .  A
N1121     Co1130   2.082       .  S
C1122      C1136   1.460       .  S
C1122      C1187   1.475       .  S
C1122      N1126   1.351       .  A
C1123      C1810   1.457   1_455  S
C1123      H1127   1.082       .  S
N1124      C1135   1.339       .  A
N1124     Co1134   2.083       .  S
C1128      C1140   1.461       .  S
C1128      C1248   1.477       .  S
C1128      N1144   1.351       .  A
Co1130     N2450   2.091   1_455  S
Co1130    Cl2477   2.459   1_455  S
N1131      C1142   1.351       .  A
C1132      N2439   1.352       .  A
C1136      H2431   1.082       .  S
Cl1141    Co2433   2.456       .  S
Cl1141    Co2466   2.450       .  S
C1142      C1791   1.455   1_565  S
C1145      C1150   1.385       .  A
C1145      C1146   1.405       .  A
C1145      S1151   1.715       .  A
C1146      C1147   1.407       .  A
C1146      H1157   1.083       .  S
C1147      C1156   1.373       .  A
C1147      C1148   1.387       .  A
C1148      C1149   1.403       .  A
C1148      S1154   1.713       .  A
C1149      C1150   1.405       .  A
C1149      H1158   1.083       .  S
C1150      C1153   1.370       .  A
S1151      C1152   1.726       .  A
C1152      C1153   1.392       .  A
C1153      H1159   1.083       .  S
S1154      C1155   1.723       .  A
C1155      C1156   1.390       .  A
C1156      H1160   1.083       .  S
C1161      C1166   1.386       .  A
C1161      C1162   1.405       .  A
C1161      S1167   1.717       .  A
C1162      C1163   1.407       .  A
C1162      H1173   1.083       .  S
C1163      C1172   1.372       .  A
C1163      C1164   1.387       .  A
C1164      C1165   1.398       .  A
C1164      S1170   1.707       .  A
C1165      C1166   1.400       .  A
C1165      H1174   1.084       .  S
C1166      C1169   1.364       .  A
S1167      C1168   1.724       .  A
C1168      C1169   1.387       .  A
C1169      H1175   1.084       .  S
S1170      C1171   1.720       .  A
C1171      C1172   1.390       .  A
C1172      H1176   1.083       .  S
C1177      C1182   1.386       .  A
C1177      C1178   1.402       .  A
C1177      S1183   1.702       .  A
C1178      C1179   1.403       .  A
C1178      H1189   1.083       .  S
C1179      C1188   1.372       .  A
C1179      C1180   1.387       .  A
C1180      C1181   1.401       .  A
C1180      S1186   1.708       .  A
C1181      C1182   1.403       .  A
C1181      H1190   1.083       .  S
C1182      C1185   1.371       .  A
S1183      C1184   1.731       .  A
C1184      C1185   1.392       .  A
C1184      C1235   1.493       .  S
C1185      H1191   1.083       .  S
S1186      C1187   1.722       .  A
C1187      C1188   1.387       .  A
C1188      H1192   1.083       .  S
C1193      C1198   1.387       .  A
C1193      C1194   1.393       .  A
C1193      S1199   1.703       .  A
C1194      C1195   1.397       .  A
C1194      H1205   1.083       .  S
C1195      C1204   1.358       .  A
C1195      C1196   1.386       .  A
C1196      C1197   1.403       .  A
C1196      S1202   1.715       .  A
C1197      C1198   1.406       .  A
C1197      H1206   1.083       .  S
C1198      C1201   1.368       .  A
S1199      C1200   1.716       .  A
C1200      C1201   1.388       .  A
C1201      H1207   1.083       .  S
S1202      C1203   1.725       .  A
C1203      C1204   1.386       .  A
C1204      H1208   1.083       .  S
C1209      C1214   1.386       .  A
C1209      C1210   1.401       .  A
C1209      S1215   1.711       .  A
C1210      C1211   1.403       .  A
C1210      H1221   1.082       .  S
C1211      C1220   1.367       .  A
C1211      C1212   1.387       .  A
C1212      C1213   1.399       .  A
C1212      S1218   1.708       .  A
C1213      C1214   1.402       .  A
C1213      H1222   1.082       .  S
C1214      C1217   1.364       .  A
S1215      C1216   1.725       .  A
C1216      C1217   1.389       .  A
C1217      H1223   1.083       .  S
S1218      C1219   1.719       .  A
C1219      C1220   1.385       .  A
C1220      H1224   1.083       .  S
C1225      C1230   1.387       .  A
C1225      C1226   1.401       .  A
C1225      S1231   1.704       .  A
C1226      C1227   1.402       .  A
C1226      H1237   1.082       .  S
C1227      C1236   1.372       .  A
C1227      C1228   1.385       .  A
C1228      C1229   1.403       .  A
C1228      S1234   1.701       .  A
C1229      C1230   1.402       .  A
C1229      H1238   1.082       .  S
C1230      C1233   1.374       .  A
S1231      C1232   1.722       .  A
C1232      C1233   1.386       .  A
C1233      H1239   1.082       .  S
S1234      C1235   1.731       .  A
C1235      C1236   1.392       .  A
C1236      H1240   1.083       .  S
C1241      C1246   1.386       .  A
C1241      C1242   1.403       .  A
C1241      S1247   1.709       .  A
C1242      C1243   1.404       .  A
C1242      H1253   1.083       .  S
C1243      C1252   1.373       .  A
C1243      C1244   1.383       .  A
C1244      C1245   1.406       .  A
C1244      S1250   1.710       .  A
C1245      C1246   1.406       .  A
C1245      H1254   1.083       .  S
C1246      C1249   1.375       .  A
S1247      C1248   1.722       .  A
C1248      C1249   1.389       .  A
C1249      H1255   1.083       .  S
S1250      C1251   1.734       .  A
C1251      C1252   1.397       .  A
C1252      H1256   1.081       .  S
C1257      C1262   1.385       .  A
C1257      C1258   1.410       .  A
C1257      S1263   1.714       .  A
C1258      C1259   1.409       .  A
C1258      H1269   1.083       .  S
C1259      C1268   1.382       .  A
C1259      C1260   1.387       .  A
C1260      C1261   1.404       .  A
C1260      S1266   1.708       .  A
C1261      C1262   1.404       .  A
C1261      H1270   1.083       .  S
C1262      C1265   1.376       .  A
S1263      C1264   1.730       .  A
C1264      C1265   1.391       .  A
C1265      H1271   1.083       .  S
S1266      C1267   1.723       .  A
C1267      C1268   1.392       .  A
C1268      H1272   1.083       .  S
C1273      C1278   1.386       .  A
C1273      C1274   1.403       .  A
C1273      S1279   1.709       .  A
C1274      C1275   1.404       .  A
C1274      H1285   1.085       .  S
C1275      C1284   1.373       .  A
C1275      C1276   1.387       .  A
C1276      C1277   1.406       .  A
C1276      S1282   1.713       .  A
C1277      C1278   1.406       .  A
C1277      H1286   1.085       .  S
C1278      C1281   1.376       .  A
S1279      C1280   1.727       .  A
C1280      C1281   1.391       .  A
C1281      H1287   1.084       .  S
S1282      C1283   1.724       .  A
C1283      C1284   1.388       .  A
C1284      H1288   1.084       .  S
C1289      C1294   1.384       .  A
C1289      C1290   1.402       .  A
C1289      S1295   1.702       .  A
C1290      C1291   1.402       .  A
C1290      H1301   1.083       .  S
C1291      C1300   1.373       .  A
C1291      C1292   1.387       .  A
C1292      C1293   1.404       .  A
C1292      S1298   1.707       .  A
C1293      C1294   1.404       .  A
C1293      H1302   1.083       .  S
C1294      C1297   1.374       .  A
S1295      C1296   1.732       .  A
C1296      C1297   1.395       .  A
C1297      H1303   1.081       .  S
S1298      C1299   1.724       .  A
C1299      C1300   1.385       .  A
C1300      H1304   1.083       .  S
C1305      C1310   1.386       .  A
C1305      C1306   1.398       .  A
C1305      S1311   1.703       .  A
C1306      C1307   1.399       .  A
C1306      H1317   1.083       .  S
C1307      C1316   1.368       .  A
C1307      C1308   1.387       .  A
C1308      C1309   1.407       .  A
C1308      S1314   1.714       .  A
C1309      C1310   1.408       .  A
S1311      C1312   1.724       .  A
C1313      H1319   1.083       .  S
S1314      C1315   1.726       .  A
C1315      C1316   1.383       .  A
C1316      H1320   1.083       .  S
C1321      C1326   1.387       .  A
C1321      C1322   1.398       .  A
C1322      C1323   1.399       .  A
C1323      C1332   1.367       .  A
C1323      C1324   1.387       .  A
C1324      C1325   1.407       .  A
C1324      S1330   1.715       .  A
C1325      C1326   1.408       .  A
C1325      H1334   1.082       .  S
C1326      C1329   1.377       .  A
C1328      C1329   1.391       .  A
C1329      H1335   1.082       .  S
S1330      C1331   1.726       .  A
C1331      C1332   1.383       .  A
C1332      H1336   1.083       .  S
C1337      C1338   1.408       .  A
C1337      C1342   1.410       .  A
C1337      C1964   1.500       .  S
C1338      C1339   1.404       .  A
C1338      H1343   1.081       .  S
C1339      C1340   1.405       .  A
C1339      C1996   1.485       .  S
C1340      C1341   1.406       .  A
C1340      H1344   1.083       .  S
C1341      C1342   1.408       .  A
C1341      C1980   1.483       .  S
C1342      H1345   1.080       .  S
C1346      C1347   1.409       .  A
C1346      C1351   1.410       .  A
C1346      C1585   1.500       .  S
C1347      C1348   1.408       .  A
C1347      H1352   1.079       .  S
C1348      C1349   1.405       .  A
C1348      C1614   1.487       .  S
C1349      C1350   1.403       .  A
C1349      H1353   1.082       .  S
C1350      C1351   1.406       .  A
C1350      C1598   1.486       .  S
C1351      H1354   1.081       .  S
C1355      C1356   1.404       .  A
C1355      C1360   1.405       .  A
C1355      C1364   1.504       .  S
C1356      C1357   1.406       .  A
C1356      H1361   1.081       .  S
C1357      C1358   1.409       .  A
C1357      C1550   1.486       .  S
C1358      C1359   1.406       .  A
C1358      H1362   1.083       .  S
C1359      C1360   1.403       .  A
C1359      C1537   1.482       .  S
C1360      H1363   1.079       .  S
C1364      C1365   1.406       .  A
C1364      C1369   1.408       .  A
C1365      C1366   1.406       .  A
C1365      H1370   1.082       .  S
C1366      C1367   1.406       .  A
C1366      C1486   1.481       .  S
C1367      C1368   1.404       .  A
C1367      H1371   1.083       .  S
C1368      C1369   1.403       .  A
C1368      C1502   1.482       .  S
C1369      H1372   1.077       .  S
C1373      C1410   1.457       .  S
C1373      C1566   1.472       .  S
C1373      N1391   1.352       .  A
N1374      N1391   1.327       .  A
N1374      N1396   1.322       .  A
C1375      C1413   1.458       .  S
C1375      H1420   1.082       .  S
C1375      N1400   1.340       .  A
H1376      C1417   1.082       .  S
C1377      C1715   1.458       .  S
C1377      H1406   1.082       .  S
C1377      N1401   1.341       .  A
Co1378     N2064   2.084   1_545  S
Co1378     N1386   2.084       .  S
Co1378     N1418   2.099       .  S
Co1378     N1394   2.101       .  S
N1379      C1417   1.344       .  A
N1379      N1386   1.318       .  A
N1379     Co1380   2.073       .  S
Co1380     N1400   2.085       .  S
C1381      C1711   1.457   1_554  S
C1381      C1476   1.460   1_655  S
N1382      N1389   1.319       .  A
N1382      N1412   1.327       .  A
N1382     Co1415   2.085       .  S
N1383      N2069   1.320   1_445  A
N1384      C1413   1.353       .  A
N1384      N1394   1.326       .  A
H1385      C1410   1.081       .  S
N1386      N1407   1.322       .  A
N1387      N1405   1.318       .  A
N1387      N1392   1.325       .  A
C1388      C1416   1.461       .  S
C1388      C1633   1.475       .  S
C1388      N1392   1.349       .  A
N1389      C1404   1.340       .  A
N1389     Co1411   2.082       .  S
C1390      H1424   1.082       .  S
C1390      N1418   1.346       .  A
C1393      C1466   1.484   1_545  S
C1393      N2082   1.351   1_545  A
N1394      N1400   1.323       .  A
N1395      C1421   1.345       .  A
N1395      N1397   1.323       .  A
N1395     Co1411   2.102       .  S
N1396      C1410   1.339       .  A
N1396     Co2046   2.087       .  S
N1397      N1425   1.322       .  A
N1397     Co1415   2.079       .  S
H1398      C1421   1.082       .  S
H1399      C1416   1.081       .  S
N1401      N2051   1.321       .  A
N1401     Co1415   2.083       .  S
N1402      N1414   1.327       .  A
N1402     Co1411   2.092       .  S
C1403      C1417   1.459       .  S
C1403      C1665   1.469       .  S
C1403      N1407   1.348       .  A
C1404      C1423   1.458       .  S
C1404      H1408   1.082       .  S
N1405      C1416   1.343       .  A
N1405     Co2083   2.085   1_545  S
C1409      C1421   1.465       .  S
C1409      C1553   1.470       .  S
C1409      N1425   1.346       .  A
Co1411    Cl2090   2.448       .  S
N1412      C1423   1.351       .  A
C1413      C1534   1.474       .  S
N1414      C2061   1.351       .  A
Co1415     N2073   2.088       .  S
Co1415    Cl2090   2.461       .  S
Cl1422    Co2079   2.453   1_545  S
Cl1422    Co2083   2.454   1_545  S
C1423      C1649   1.473       .  S
C1426      C1463   1.456       .  S
C1426      C1617   1.470       .  S
C1426      N1444   1.351       .  A
N1427      N1444   1.327       .  A
N1427      N1449   1.319       .  A
N1427     Co1464   2.086       .  S
C1428      C2134   1.462       .  S
C1428      H1473   1.082       .  S
C1428      N1453   1.344       .  A
C1430      C1434   1.467       .  S
C1430      H1459   1.082       .  S
C1430      N1454   1.349       .  A
Co1431     N1449   2.082       .  S
Co1431     N2107   2.096   1_545  S
Co1431     N1471   2.104       .  S
Co1431     N1447   2.098       .  S
N1432      C1470   1.341       .  A
N1432      N1439   1.321       .  A
Co1433     N1436   2.078       .  S
Co1433     N1453   2.093       .  S
Co1433     N1440   2.094       .  S
Co1433    Cl2143   2.447       .  S
C1434      C1601   1.473       .  S
C1434      N1472   1.345       .  A
N1435      N1465   1.323       .  A
N1435     Co1468   2.082       .  S
N1436      N1454   1.319       .  A
N1436      N1472   1.321       .  A
N1437      N1447   1.329       .  A
H1438      C1463   1.082       .  S
N1439      N1460   1.326       .  A
N1439     Co2099   2.091       .  S
N1440      N1458   1.321       .  A
N1440      N1445   1.326       .  A
C1441      C1469   1.456       .  S
C1441      C1505   1.469       .  S
C1441      N1445   1.353       .  A
N1442      C1457   1.338       .  A
N1442     Co1464   2.071       .  S
C1443      C1446   1.466       .  S
C1443      H1477   1.082       .  S
C1443      N1471   1.345       .  A
C1446      C1489   1.471       .  S
C1446      N1467   1.345       .  A
N1448      C1474   1.345       .  A
N1448      N1450   1.320       .  A
N1449      C1463   1.338       .  A
N1450      N1478   1.323       .  A
N1450     Co2136   2.076   1_545  S
H1451      C1474   1.081       .  S
H1452      C1469   1.081       .  S
N1454     Co1468   2.097       .  S
N1455      N1467   1.322       .  A
N1455      N1471   1.322       .  A
N1455     Co1464   2.075       .  S
C1456      C1470   1.459       .  S
C1456      C1521   1.473       .  S
C1456      N1460   1.351       .  A
C1457      H1461   1.082       .  S
N1458      C1469   1.336       .  A
N1458     Co1468   2.074       .  S
C1462      C1474   1.465       .  S
C1462      C1582   1.473       .  S
C1462      N1478   1.346       .  A
N1465      C1476   1.349   1_655  A
C1466      C2096   1.465       .  S
Co1468     N2118   2.090       .  S
Co1468    Cl2143   2.454       .  S
Cl1475    Co2101   2.450       .  S
Cl1475    Co2136   2.453       .  S
C1479      C1484   1.386       .  A
C1479      C1480   1.404       .  A
C1479      S1485   1.716       .  A
C1480      C1481   1.407       .  A
C1480      H1491   1.083       .  S
C1481      C1490   1.371       .  A
C1481      C1482   1.387       .  A
C1482      C1483   1.398       .  A
C1482      S1488   1.709       .  A
C1483      C1484   1.401       .  A
C1483      H1492   1.083       .  S
C1484      C1487   1.363       .  A
S1485      C1486   1.726       .  A
C1486      C1487   1.388       .  A
C1487      H1493   1.083       .  S
S1488      C1489   1.719       .  A
C1489      C1490   1.389       .  A
C1490      H1494   1.083       .  S
C1495      C1500   1.386       .  A
C1495      C1496   1.402       .  A
C1495      S1501   1.714       .  A
C1496      C1497   1.405       .  A
C1496      H1507   1.083       .  S
C1497      C1506   1.368       .  A
C1497      C1498   1.387       .  A
C1498      C1499   1.398       .  A
C1498      S1504   1.708       .  A
C1499      C1500   1.401       .  A
C1499      H1508   1.083       .  S
C1500      C1503   1.364       .  A
S1501      C1502   1.724       .  A
C1502      C1503   1.389       .  A
C1503      H1509   1.083       .  S
S1504      C1505   1.720       .  A
C1505      C1506   1.388       .  A
C1506      H1510   1.083       .  S
C1511      C1516   1.385       .  A
C1511      C1512   1.403       .  A
C1511      S1517   1.701       .  A
C1512      C1513   1.403       .  A
C1512      H1523   1.083       .  S
C1513      C1522   1.373       .  A
C1513      C1514   1.387       .  A
C1514      C1515   1.401       .  A
C1514      S1520   1.706       .  A
C1515      C1516   1.403       .  A
C1515      H1524   1.082       .  S
C1516      C1519   1.371       .  A
S1517      C1518   1.731       .  A
C1518      C1519   1.392       .  A
C1518      C1569   1.493       .  S
C1519      H1525   1.083       .  S
S1520      C1521   1.721       .  A
C1521      C1522   1.387       .  A
C1522      H1526   1.083       .  S
C1527      C1532   1.387       .  A
C1527      C1528   1.396       .  A
C1527      S1533   1.706       .  A
C1528      C1529   1.399       .  A
C1528      H1539   1.083       .  S
C1529      C1538   1.362       .  A
C1529      C1530   1.386       .  A
C1530      C1531   1.407       .  A
C1530      S1536   1.719       .  A
C1531      C1532   1.409       .  A
C1531      H1540   1.083       .  S
C1532      C1535   1.374       .  A
S1533      C1534   1.719       .  A
C1534      C1535   1.391       .  A
C1535      H1541   1.083       .  S
S1536      C1537   1.726       .  A
C1537      C1538   1.387       .  A
C1538      H1542   1.083       .  S
C1543      C1548   1.385       .  A
C1543      C1544   1.403       .  A
C1543      S1549   1.715       .  A
C1544      C1545   1.406       .  A
C1544      H1555   1.083       .  S
C1545      C1554   1.369       .  A
C1545      C1546   1.387       .  A
C1546      C1547   1.399       .  A
C1546      S1552   1.710       .  A
C1547      C1548   1.402       .  A
C1547      H1556   1.083       .  S
C1548      C1551   1.364       .  A
S1549      C1550   1.727       .  A
C1550      C1551   1.391       .  A
C1551      H1557   1.082       .  S
S1552      C1553   1.720       .  A
C1553      C1554   1.388       .  A
C1554      H1558   1.083       .  S
C1559      C1564   1.387       .  A
C1559      C1560   1.400       .  A
C1559      S1565   1.705       .  A
C1560      C1561   1.402       .  A
C1560      H1571   1.082       .  S
C1561      C1570   1.371       .  A
C1561      C1562   1.385       .  A
C1562      C1563   1.403       .  A
C1562      S1568   1.701       .  A
C1563      C1564   1.403       .  A
C1563      H1572   1.082       .  S
C1564      C1567   1.373       .  A
S1565      C1566   1.721       .  A
C1566      C1567   1.386       .  A
C1567      H1573   1.083       .  S
S1568      C1569   1.732       .  A
C1569      C1570   1.392       .  A
C1570      H1574   1.082       .  S
C1575      C1580   1.387       .  A
C1575      C1576   1.404       .  A
C1575      S1581   1.707       .  A
C1576      C1577   1.405       .  A
C1576      H1587   1.083       .  S
C1577      C1586   1.374       .  A
C1577      C1578   1.384       .  A
C1578      C1579   1.402       .  A
C1578      S1584   1.703       .  A
C1579      C1580   1.402       .  A
C1579      H1588   1.083       .  S
C1580      C1583   1.373       .  A
S1581      C1582   1.725       .  A
C1582      C1583   1.385       .  A
C1583      H1589   1.083       .  S
S1584      C1585   1.731       .  A
C1585      C1586   1.397       .  A
C1586      H1590   1.081       .  S
C1591      C1596   1.386       .  A
C1591      C1592   1.408       .  A
C1591      S1597   1.712       .  A
C1592      C1593   1.408       .  A
C1592      H1603   1.083       .  S
C1593      C1602   1.379       .  A
C1593      C1594   1.387       .  A
C1594      C1595   1.399       .  A
C1594      S1600   1.701       .  A
C1595      C1596   1.399       .  A
C1595      H1604   1.083       .  S
C1596      C1599   1.370       .  A
S1597      C1598   1.729       .  A
C1598      C1599   1.387       .  A
C1599      H1605   1.083       .  S
S1600      C1601   1.721       .  A
C1601      C1602   1.389       .  A
C1602      H1606   1.083       .  S
C1607      C1612   1.386       .  A
C1607      C1608   1.398       .  A
C1607      S1613   1.703       .  A
C1608      C1609   1.400       .  A
C1608      H1619   1.085       .  S
C1609      C1618   1.367       .  A
C1609      C1610   1.387       .  A
C1610      C1611   1.404       .  A
C1610      S1616   1.712       .  A
C1611      C1612   1.406       .  A
C1611      H1620   1.085       .  S
C1612      C1615   1.373       .  A
S1613      C1614   1.726       .  A
C1614      C1615   1.392       .  A
C1615      H1621   1.083       .  S
S1616      C1617   1.723       .  A
C1617      C1618   1.384       .  A
C1618      H1622   1.084       .  S
C1623      C1628   1.383       .  A
C1623      C1624   1.403       .  A
C1623      S1629   1.703       .  A
C1624      C1625   1.403       .  A
C1624      H1635   1.083       .  S
C1625      C1634   1.373       .  A
C1625      C1626   1.387       .  A
C1626      C1627   1.403       .  A
C1626      S1632   1.708       .  A
C1627      C1628   1.404       .  A
C1627      H1636   1.083       .  S
C1628      C1631   1.373       .  A
S1629      C1630   1.733       .  A
C1630      C1631   1.395       .  A
C1630      C1671   1.500       .  S
C1631      H1637   1.080       .  S
S1632      C1633   1.724       .  A
C1633      C1634   1.387       .  A
C1634      H1638   1.083       .  S
C1639      C1644   1.387       .  A
C1639      C1640   1.400       .  A
C1639      S1645   1.703       .  A
C1640      C1641   1.400       .  A
C1640      H1651   1.083       .  S
C1641      C1650   1.369       .  A
C1641      C1642   1.387       .  A
C1642      C1643   1.405       .  A
C1642      S1648   1.712       .  A
C1643      C1644   1.406       .  A
C1643      H1986   1.083       .  S
C1644      C1981   1.375       .  A
S1645      C1646   1.725       .  A
C1646      C1981   1.390       .  A
C1646      C1675   1.483       .  S
C1647      C1978   1.377       .  A
C1647      C1980   1.391       .  A
C1647      H1653   1.083       .  S
S1648      C1649   1.724       .  A
C1649      C1650   1.385       .  A
C1650      H1654   1.083       .  S
H1652      C1977   1.083       .  S
C1655      C1660   1.387       .  A
C1655      C1656   1.395       .  A
C1655      S1995   1.698       .  A
C1656      C1657   1.396       .  A
C1656      H2001   1.083       .  S
C1657      C1666   1.364       .  A
C1657      C1658   1.387       .  A
C1658      C1659   1.408       .  A
C1658      S1664   1.715       .  A
C1659      C1660   1.408       .  A
C1659      H1668   1.082       .  S
C1660      C1663   1.377       .  A
S1661      C1989   1.703       .  A
S1661      C1996   1.727       .  A
C1662      C1663   1.391       .  A
C1662      C1673   1.479       .  S
C1662      S1995   1.722       .  A
C1663      H1669   1.083       .  S
S1664      C1665   1.726       .  A
C1665      C1666   1.381       .  A
C1666      H1670   1.083       .  S
H1667      C1990   1.083       .  S
C1671      C1672   1.406       .  A
C1671      C1676   1.409       .  A
C1672      C1673   1.404       .  A
C1672      H1677   1.081       .  S
C1673      C1674   1.403       .  A
C1674      C1675   1.406       .  A
C1674      H1678   1.083       .  S
C1675      C1676   1.408       .  A
C1676      H1679   1.079       .  S
C1680      C1681   1.412       .  A
C1680      C1685   1.413       .  A
C1680      C1919   1.505       .  S
C1681      C1682   1.407       .  A
C1681      H1686   1.080       .  S
C1682      C1683   1.406       .  A
C1682      C1948   1.487       .  S
C1683      C1684   1.405       .  A
C1683      H1687   1.083       .  S
C1684      C1685   1.410       .  A
C1684      C1932   1.493       .  S
C1685      H1688   1.081       .  S
C1689      C1690   1.407       .  A
C1689      C1694   1.405       .  A
C1689      C1698   1.504       .  S
C1690      C1691   1.407       .  A
C1690      H1695   1.081       .  S
C1691      C1692   1.408       .  A
C1691      C1884   1.485       .  S
C1692      C1693   1.402       .  A
C1692      H1696   1.083       .  S
C1693      C1694   1.401       .  A
C1693      C1871   1.475       .  S
C1694      H1697   1.079       .  S
C1698      C1699   1.409       .  A
C1698      C1703   1.407       .  A
C1699      C1700   1.407       .  A
C1699      H1704   1.081       .  S
C1700      C1701   1.408       .  A
C1700      C1820   1.487       .  S
C1701      C1702   1.403       .  A
C1701      H1705   1.083       .  S
C1702      C1703   1.401       .  A
C1702      C1836   1.479       .  S
C1703      H1706   1.079       .  S
C1707      C1744   1.455       .  S
C1707      C1900   1.474       .  S
C1707      N1725   1.354       .  A
N1708      N1725   1.329       .  A
N1708      N1730   1.322       .  A
C1709      C1747   1.457       .  S
C1709      H1754   1.082       .  S
C1709      N1734   1.338       .  A
H1710      C1751   1.082       .  S
C1711      H1740   1.082       .  S
C1711      N1735   1.338       .  A
Co1712     N2398   2.078   1_545  S
Co1712     N1720   2.086       .  S
Co1712     N1752   2.104       .  S
Co1712     N1728   2.099       .  S
N1713      C1751   1.344       .  A
N1713      N1720   1.319       .  A
N1713     Co1714   2.083       .  S
Co1714     N1734   2.080       .  S
C1715      C1810   1.467       .  S
N1716      N1723   1.318       .  A
N1716      N1746   1.328       .  A
N1716     Co1749   2.086       .  S
N1717      N2403   1.319   1_445  A
N1718      C1747   1.353       .  A
N1718      N1728   1.325       .  A
H1719      C1744   1.081       .  S
N1720      N1741   1.324       .  A
N1721      N1739   1.319       .  A
N1721      N1726   1.324       .  A
C1722      C1750   1.464       .  S
C1722      C1967   1.473       .  S
C1722      N1726   1.347       .  A
N1723      C1738   1.339       .  A
N1723     Co1745   2.083       .  S
C1724      H1758   1.082       .  S
C1724      N1752   1.347       .  A
C1727      C1800   1.480   1_545  S
C1727      N2416   1.349   1_545  A
N1728      N1734   1.323       .  A
N1729      C1755   1.343       .  A
N1729      N1731   1.324       .  A
N1729     Co1745   2.099       .  S
N1730      C1744   1.336       .  A
N1730     Co2380   2.081       .  S
N1731      N1759   1.322       .  A
N1731     Co1749   2.082       .  S
H1732      C1755   1.082       .  S
H1733      C1750   1.081       .  S
N1735      N2385   1.321   1_655  A
N1735     Co1749   2.079       .  S
N1736      N1748   1.329       .  A
N1736     Co1745   2.097       .  S
C1737      C1751   1.462       .  S
C1737      C1999   1.472       .  S
C1737      N1741   1.348       .  A
C1738      C1757   1.459       .  S
C1738      H1742   1.082       .  S
N1739      C1750   1.344       .  A
N1739     Co2417   2.091   1_545  S
C1743      C1755   1.463       .  S
C1743      C1887   1.469       .  S
C1743      N1759   1.347       .  A
Co1745    Cl2424   2.451       .  S
N1746      C1757   1.352       .  A
C1747      C1868   1.470       .  S
N1748      C2395   1.353       .  A
Co1749     N2407   2.093       .  S
Co1749    Cl2424   2.459       .  S
Cl1756    Co2413   2.453   1_545  S
Cl1756    Co2417   2.454   1_545  S
C1757      C1983   1.476       .  S
C1760      C1797   1.457       .  S
C1760      C1951   1.477       .  S
C1760      N1778   1.354       .  A
N1761      N1778   1.329       .  A
N1761      N1783   1.318       .  A
N1761     Co1798   2.097       .  S
C1762      C2468   1.465       .  S
C1762      H1807   1.082       .  S
C1762      N1787   1.346       .  A
C1764      C1768   1.466       .  S
C1764      H1793   1.082       .  S
C1764      N1788   1.348       .  A
Co1765     N1783   2.079       .  S
Co1765     N2441   2.097   1_545  S
Co1765     N1805   2.106       .  S
Co1765     N1781   2.093       .  S
N1766      C1804   1.338       .  A
N1766      N1773   1.321       .  A
Co1767     N1770   2.095       .  S
Co1767     N1787   2.107       .  S
Co1767     N1774   2.099       .  S
Co1767    Cl2477   2.451       .  S
C1768      C1935   1.480       .  S
C1768      N1806   1.349       .  A
N1769      N1799   1.325       .  A
N1769     Co1802   2.094       .  S
N1770      N1788   1.321       .  A
N1770      N1806   1.325       .  A
N1771      N1781   1.328       .  A
H1772      C1797   1.082       .  S
N1773      N1794   1.328       .  A
N1773     Co2433   2.098       .  S
N1774      N1792   1.321       .  A
N1774      N1779   1.327       .  A
C1775      C1803   1.455       .  S
C1775      C1839   1.474       .  S
C1775      N1779   1.354       .  A
N1776      C1791   1.337       .  A
N1776     Co1798   2.072       .  S
C1777      C1780   1.466       .  S
C1777      H1811   1.082       .  S
C1777      N1805   1.345       .  A
C1780      C1823   1.475       .  S
C1780      N1801   1.348       .  A
N1782      C1808   1.344       .  A
N1782      N1784   1.320       .  A
N1783      C1797   1.340       .  A
N1784      N1812   1.326       .  A
N1784     Co2470   2.087   1_545  S
H1785      C1808   1.081       .  S
H1786      C1803   1.081       .  S
N1788     Co1802   2.099       .  S
N1789      N1801   1.324       .  A
N1789      N1805   1.322       .  A
N1789     Co1798   2.082       .  S
C1790      C1804   1.454       .  S
C1790      C1855   1.472       .  S
C1790      N1794   1.353       .  A
C1791      H1795   1.082       .  S
N1792      C1803   1.337       .  A
N1792     Co1802   2.074       .  S
C1796      C1808   1.464       .  S
C1796      C1916   1.478       .  S
C1796      N1812   1.350       .  A
N1799      C1810   1.351       .  A
C1800      C2430   1.466       .  S
Co1802     N2452   2.093       .  S
Co1802    Cl2477   2.457       .  S
Cl1809    Co2435   2.458       .  S
Cl1809    Co2470   2.448       .  S
C1813      C1818   1.385       .  A
C1813      C1814   1.405       .  A
C1813      S1819   1.714       .  A
C1814      C1815   1.407       .  A
C1814      H1825   1.083       .  S
C1815      C1824   1.373       .  A
C1815      C1816   1.387       .  A
C1816      C1817   1.401       .  A
C1816      S1822   1.711       .  A
C1817      C1818   1.403       .  A
C1817      H1826   1.083       .  S
C1818      C1821   1.368       .  A
S1819      C1820   1.727       .  A
C1820      C1821   1.391       .  A
C1821      H1827   1.083       .  S
S1822      C1823   1.721       .  A
C1823      C1824   1.389       .  A
C1824      H1828   1.083       .  S
C1829      C1834   1.386       .  A
C1829      C1830   1.404       .  A
C1829      S1835   1.716       .  A
C1830      C1831   1.407       .  A
C1830      H1841   1.083       .  S
C1831      C1840   1.370       .  A
C1831      C1832   1.386       .  A
C1832      C1833   1.399       .  A
C1832      S1838   1.709       .  A
C1833      C1834   1.401       .  A
C1833      H1842   1.083       .  S
C1834      C1837   1.364       .  A
S1835      C1836   1.723       .  A
C1836      C1837   1.387       .  A
C1837      H1843   1.084       .  S
S1838      C1839   1.720       .  A
C1839      C1840   1.390       .  A
C1840      H1844   1.082       .  S
C1845      C1850   1.386       .  A
C1845      C1846   1.402       .  A
C1845      S1851   1.701       .  A
C1846      C1847   1.402       .  A
C1846      H1857   1.083       .  S
C1847      C1856   1.373       .  A
C1847      C1848   1.388       .  A
C1848      C1849   1.400       .  A
C1848      S1854   1.704       .  A
C1849      C1850   1.402       .  A
C1849      H1858   1.083       .  S
C1850      C1853   1.371       .  A
S1851      C1852   1.730       .  A
C1852      C1853   1.392       .  A
C1852      C1903   1.494       .  S
C1853      H1859   1.083       .  S
S1854      C1855   1.721       .  A
C1855      C1856   1.385       .  A
C1856      H1860   1.083       .  S
C1861      C1866   1.387       .  A
C1861      C1862   1.395       .  A
C1861      S1867   1.704       .  A
C1862      C1863   1.398       .  A
C1862      H1873   1.083       .  S
C1863      C1872   1.360       .  A
C1863      C1864   1.386       .  A
C1864      C1865   1.406       .  A
C1864      S1870   1.718       .  A
C1865      C1866   1.408       .  A
C1865      H1874   1.083       .  S
C1866      C1869   1.372       .  A
S1867      C1868   1.718       .  A
C1868      C1869   1.390       .  A
C1869      H1875   1.082       .  S
S1870      C1871   1.724       .  A
C1871      C1872   1.384       .  A
C1872      H1876   1.084       .  S
C1877      C1882   1.385       .  A
C1877      C1878   1.403       .  A
C1877      S1883   1.713       .  A
C1878      C1879   1.405       .  A
C1878      H1889   1.083       .  S
C1879      C1888   1.369       .  A
C1879      C1880   1.387       .  A
C1880      C1881   1.399       .  A
C1880      S1886   1.709       .  A
C1881      C1882   1.402       .  A
C1881      H1890   1.083       .  S
C1882      C1885   1.365       .  A
S1883      C1884   1.727       .  A
C1884      C1885   1.390       .  A
C1885      H1891   1.083       .  S
S1886      C1887   1.720       .  A
C1887      C1888   1.387       .  A
C1888      H1892   1.083       .  S
C1893      C1898   1.387       .  A
C1893      C1894   1.400       .  A
C1893      S1899   1.702       .  A
C1894      C1895   1.401       .  A
C1894      H1905   1.082       .  S
C1895      C1904   1.370       .  A
C1895      C1896   1.385       .  A
C1896      C1897   1.404       .  A
C1896      S1902   1.703       .  A
C1897      C1898   1.404       .  A
C1897      H1906   1.082       .  S
C1898      C1901   1.376       .  A
S1899      C1900   1.722       .  A
C1900      C1901   1.387       .  A
C1901      H1907   1.082       .  S
S1902      C1903   1.732       .  A
C1903      C1904   1.392       .  A
C1904      H1908   1.082       .  S
C1909      C1914   1.386       .  A
C1909      C1910   1.405       .  A
C1909      S1915   1.710       .  A
C1910      C1911   1.406       .  A
C1910      H1921   1.083       .  S
C1911      C1920   1.375       .  A
C1911      C1912   1.383       .  A
C1912      C1913   1.405       .  A
C1912      S1918   1.707       .  A
C1913      C1914   1.405       .  A
C1913      H1922   1.083       .  S
C1914      C1917   1.375       .  A
S1915      C1916   1.724       .  A
C1916      C1917   1.388       .  A
C1917      H1923   1.083       .  S
S1918      C1919   1.733       .  A
C1919      C1920   1.397       .  A
C1920      H1924   1.081       .  S
C1925      C1930   1.385       .  A
C1925      C1926   1.410       .  A
C1925      S1931   1.715       .  A
C1926      C1927   1.410       .  A
C1926      H1937   1.083       .  S
C1927      C1936   1.381       .  A
C1927      C1928   1.387       .  A
C1928      C1929   1.402       .  A
C1928      S1934   1.707       .  A
C1929      C1930   1.402       .  A
C1929      H1938   1.083       .  S
C1930      C1933   1.373       .  A
S1931      C1932   1.732       .  A
C1932      C1933   1.390       .  A
C1933      H1939   1.083       .  S
S1934      C1935   1.722       .  A
C1935      C1936   1.392       .  A
C1936      H1940   1.083       .  S
C1941      C1946   1.386       .  A
C1941      C1942   1.404       .  A
C1941      S1947   1.710       .  A
C1942      C1943   1.405       .  A
C1942      H1953   1.085       .  S
C1943      C1952   1.373       .  A
C1943      C1944   1.387       .  A
C1944      C1945   1.403       .  A
C1944      S1950   1.712       .  A
C1945      C1946   1.404       .  A
C1945      H1954   1.085       .  S
C1946      C1949   1.373       .  A
S1947      C1948   1.727       .  A
C1948      C1949   1.389       .  A
C1949      H1955   1.084       .  S
S1950      C1951   1.723       .  A
C1951      C1952   1.389       .  A
C1952      H1956   1.084       .  S
C1957      C1962   1.384       .  A
C1957      C1958   1.402       .  A
C1957      S1963   1.701       .  A
C1958      C1959   1.401       .  A
C1958      H1969   1.083       .  S
C1959      C1968   1.372       .  A
C1959      C1960   1.387       .  A
C1960      C1961   1.404       .  A
C1960      S1966   1.708       .  A
C1961      C1962   1.405       .  A
C1961      H1970   1.083       .  S
C1962      C1965   1.375       .  A
S1963      C1964   1.732       .  A
C1964      C1965   1.396       .  A
C1965      H1971   1.080       .  S
S1966      C1967   1.724       .  A
C1967      C1968   1.385       .  A
C1968      H1972   1.083       .  S
C1973      C1978   1.387       .  A
C1973      C1974   1.400       .  A
C1973      S1979   1.704       .  A
C1974      C1975   1.400       .  A
C1974      H1985   1.083       .  S
C1975      C1984   1.369       .  A
C1975      C1976   1.386       .  A
C1976      C1977   1.407       .  A
C1976      S1982   1.714       .  A
C1977      C1978   1.408       .  A
S1979      C1980   1.723       .  A
C1981      H1987   1.083       .  S
S1982      C1983   1.726       .  A
C1983      C1984   1.385       .  A
C1984      H1988   1.083       .  S
C1989      C1994   1.387       .  A
C1989      C1990   1.401       .  A
C1990      C1991   1.402       .  A
C1991      C2000   1.371       .  A
C1991      C1992   1.387       .  A
C1992      C1993   1.405       .  A
C1992      S1998   1.711       .  A
C1993      C1994   1.405       .  A
C1993      H2002   1.082       .  S
C1994      C1997   1.376       .  A
C1996      C1997   1.390       .  A
C1997      H2003   1.082       .  S
S1998      C1999   1.723       .  A
C1999      C2000   1.386       .  A
C2000      H2004   1.083       .  S
C2005      C2006   1.407       .  A
C2005      C2010   1.407       .  A
C2005      C2632   1.495       .  S
C2006      C2007   1.407       .  A
C2006      H2011   1.082       .  S
C2007      C2008   1.406       .  A
C2007      C2664   1.482       .  S
C2008      C2009   1.406       .  A
C2008      H2012   1.084       .  S
C2009      C2010   1.404       .  A
C2009      C2648   1.481       .  S
C2010      H2013   1.081       .  S
C2014      C2015   1.412       .  A
C2014      C2019   1.411       .  A
C2014      C2253   1.504       .  S
C2015      C2016   1.406       .  A
C2015      H2020   1.079       .  S
C2016      C2017   1.405       .  A
C2016      C2282   1.486       .  S
C2017      C2018   1.406       .  A
C2017      H2021   1.083       .  S
C2018      C2019   1.409       .  A
C2018      C2266   1.492       .  S
C2019      H2022   1.081       .  S
C2023      C2024   1.407       .  A
C2023      C2028   1.405       .  A
C2023      C2032   1.508       .  S
C2024      C2025   1.403       .  A
C2024      H2029   1.081       .  S
C2025      C2026   1.406       .  A
C2025      C2218   1.474       .  S
C2026      C2027   1.404       .  A
C2026      H2030   1.084       .  S
C2027      C2028   1.402       .  A
C2027      C2205   1.477       .  S
C2028      H2031   1.079       .  S
C2032      C2033   1.410       .  A
C2032      C2037   1.408       .  A
C2033      C2034   1.406       .  A
C2033      H2038   1.080       .  S
C2034      C2035   1.405       .  A
C2034      C2154   1.481       .  S
C2035      C2036   1.401       .  A
C2035      H2039   1.084       .  S
C2036      C2037   1.400       .  A
C2036      C2170   1.476       .  S
C2037      H2040   1.078       .  S
C2041      C2078   1.457       .  S
C2041      C2234   1.470       .  S
C2041      N2059   1.350       .  A
N2042      N2059   1.325       .  A
N2042      N2064   1.321       .  A
C2043      C2081   1.451       .  S
C2043      H2088   1.081       .  S
C2043      N2068   1.334       .  A
H2044      C2085   1.082       .  S
C2045      C2383   1.455       .  S
C2045      H2074   1.082       .  S
C2045      N2069   1.338       .  A
Co2046     N2054   2.097       .  S
Co2046     N2086   2.107       .  S
Co2046     N2062   2.115       .  S
N2047      C2085   1.342       .  A
N2047      N2054   1.319       .  A
N2047     Co2048   2.080       .  S
Co2048     N2068   2.065       .  S
C2049      C2379   1.455   1_554  S
C2049      C2144   1.464       .  S
N2050      N2057   1.319       .  A
N2050      N2080   1.327       .  A
N2050     Co2083   2.085       .  S
N2052      C2081   1.359       .  A
N2052      N2062   1.330       .  A
H2053      C2078   1.081   1_545  S
N2054      N2075   1.326       .  A
N2055      N2073   1.319       .  A
N2055      N2060   1.323       .  A
C2056      C2084   1.462       .  S
C2056      C2301   1.470       .  S
C2056      N2060   1.347       .  A
N2057      C2072   1.342       .  A
N2057     Co2079   2.090       .  S
C2058      H2092   1.082       .  S
C2058      N2086   1.347       .  A
C2061      C2134   1.481       .  S
N2062      N2068   1.321       .  A
N2063      C2089   1.345       .  A
N2063      N2065   1.322       .  A
N2063     Co2079   2.103       .  S
N2064      C2078   1.341       .  A
N2065      N2093   1.321       .  A
N2065     Co2083   2.073       .  S
H2066      C2089   1.082       .  S
H2067      C2084   1.082       .  S
N2069     Co2083   2.076       .  S
N2070      N2082   1.328       .  A
N2070     Co2079   2.093       .  S
C2071      C2085   1.459       .  S
C2071      C2333   1.475       .  S
C2071      N2075   1.352       .  A
C2072      C2091   1.461       .  S
C2072      H2076   1.082       .  S
N2073      C2084   1.345       .  A
C2077      C2089   1.466       .  S
C2077      C2221   1.471       .  S
C2077      N2093   1.346       .  A
N2080      C2091   1.350       .  A
C2081      C2202   1.476       .  S
C2091      C2317   1.476       .  S
C2094      C2131   1.462       .  S
C2094      C2285   1.477       .  S
C2094      N2112   1.351       .  A
N2095      N2112   1.326       .  A
N2095      N2117   1.320       .  A
N2095     Co2132   2.085       .  S
C2096      H2141   1.082       .  S
C2096      N2121   1.346       .  A
C2098      C2102   1.462       .  S
C2098      H2127   1.082       .  S
C2098      N2122   1.345       .  A
Co2099     N2117   2.093       .  S
Co2099     N2139   2.100       .  S
Co2099     N2115   2.097       .  S
N2100      C2138   1.338       .  A
N2100      N2107   1.320       .  A
Co2101     N2104   2.092       .  S
Co2101     N2121   2.103       .  S
Co2101     N2108   2.094       .  S
C2102      C2269   1.472       .  S
C2102      N2140   1.348       .  A
N2103      N2133   1.325       .  A
N2103     Co2136   2.090       .  S
N2104      N2122   1.320       .  A
N2104      N2140   1.325       .  A
N2105      N2115   1.328       .  A
H2106      C2131   1.082       .  S
N2107      N2128   1.328       .  A
N2108      N2126   1.320       .  A
N2108      N2113   1.327       .  A
C2109      C2137   1.454       .  S
C2109      C2173   1.468       .  S
C2109      N2113   1.354       .  A
N2110      C2125   1.340       .  A
N2110     Co2132   2.078       .  S
C2111      C2114   1.465       .  S
C2111      H2145   1.082       .  S
C2111      N2139   1.345       .  A
C2114      C2157   1.471       .  S
C2114      N2135   1.346       .  A
N2116      C2142   1.346       .  A
N2116      N2118   1.322       .  A
N2117      C2131   1.343       .  A
N2118      N2146   1.325       .  A
H2119      C2142   1.081       .  S
H2120      C2137   1.081       .  S
N2122     Co2136   2.086       .  S
N2123      N2135   1.322       .  A
N2123      N2139   1.321       .  A
N2123     Co2132   2.074       .  S
C2124      C2138   1.454       .  S
C2124      C2189   1.472       .  S
C2124      N2128   1.352       .  A
C2125      H2129   1.082       .  S
N2126      C2137   1.334       .  A
N2126     Co2136   2.072       .  S
C2130      C2142   1.466       .  S
C2130      C2250   1.480       .  S
C2130      N2146   1.349       .  A
N2133      C2144   1.352       .  A
C2147      C2152   1.386       .  A
C2147      C2148   1.403       .  A
C2147      S2153   1.714       .  A
C2148      C2149   1.405       .  A
C2148      H2159   1.083       .  S
C2149      C2158   1.369       .  A
C2149      C2150   1.387       .  A
C2150      C2151   1.400       .  A
C2150      S2156   1.711       .  A
C2151      C2152   1.403       .  A
C2151      H2160   1.083       .  S
C2152      C2155   1.366       .  A
S2153      C2154   1.725       .  A
C2154      C2155   1.389       .  A
C2155      H2161   1.084       .  S
S2156      C2157   1.720       .  A
C2157      C2158   1.388       .  A
C2158      H2162   1.083       .  S
C2163      C2168   1.386       .  A
C2163      C2164   1.401       .  A
C2163      S2169   1.713       .  A
C2164      C2165   1.404       .  A
C2164      H2175   1.083       .  S
C2165      C2174   1.366       .  A
C2165      C2166   1.386       .  A
C2166      C2167   1.398       .  A
C2166      S2172   1.709       .  A
C2167      C2168   1.401       .  A
C2167      H2176   1.081       .  S
C2168      C2171   1.363       .  A
S2169      C2170   1.721       .  A
C2170      C2171   1.388       .  A
C2171      H2177   1.083       .  S
S2172      C2173   1.720       .  A
C2173      C2174   1.388       .  A
C2174      H2178   1.082       .  S
C2179      C2184   1.386       .  A
C2179      C2180   1.403       .  A
C2179      S2185   1.700       .  A
C2180      C2181   1.402       .  A
C2180      H2191   1.083       .  S
C2181      C2190   1.374       .  A
C2181      C2182   1.388       .  A
C2182      C2183   1.400       .  A
C2182      S2188   1.703       .  A
C2183      C2184   1.401       .  A
C2183      H2192   1.083       .  S
C2184      C2187   1.371       .  A
S2185      C2186   1.731       .  A
C2186      C2187   1.392       .  A
C2186      C2237   1.493       .  S
C2187      H2193   1.083       .  S
S2188      C2189   1.721       .  A
C2189      C2190   1.386       .  A
C2190      H2194   1.083       .  S
C2195      C2200   1.386       .  A
C2195      C2196   1.397       .  A
C2195      S2201   1.710       .  A
C2196      C2197   1.401       .  A
C2196      H2207   1.083       .  S
C2197      C2206   1.361       .  A
C2197      C2198   1.386       .  A
C2198      C2199   1.404       .  A
C2198      S2204   1.719       .  A
C2199      C2200   1.408       .  A
C2199      H2208   1.083       .  S
C2200      C2203   1.369       .  A
S2201      C2202   1.719       .  A
C2202      C2203   1.392       .  A
C2203      H2209   1.082       .  S
S2204      C2205   1.723       .  A
C2205      C2206   1.386       .  A
C2206      H2210   1.083       .  S
C2211      C2216   1.386       .  A
C2211      C2212   1.403       .  A
C2211      S2217   1.718       .  A
C2212      C2213   1.406       .  A
C2212      H2223   1.082       .  S
C2213      C2222   1.369       .  A
C2213      C2214   1.387       .  A
C2214      C2215   1.398       .  A
C2214      S2220   1.710       .  A
C2215      C2216   1.401       .  A
C2215      H2224   1.081       .  S
C2216      C2219   1.364       .  A
S2217      C2218   1.721       .  A
C2218      C2219   1.386       .  A
C2219      H2225   1.083       .  S
S2220      C2221   1.720       .  A
C2221      C2222   1.388       .  A
C2222      H2226   1.083       .  S
C2227      C2232   1.387       .  A
C2227      C2228   1.400       .  A
C2227      S2233   1.707       .  A
C2228      C2229   1.403       .  A
C2228      H2239   1.082       .  S
C2229      C2238   1.370       .  A
C2229      C2230   1.386       .  A
C2230      C2231   1.401       .  A
C2230      S2236   1.702       .  A
C2231      C2232   1.402       .  A
C2231      H2240   1.082       .  S
C2232      C2235   1.371       .  A
S2233      C2234   1.721       .  A
C2234      C2235   1.385       .  A
C2235      H2241   1.083       .  S
S2236      C2237   1.731       .  A
C2237      C2238   1.392       .  A
C2238      H2242   1.082       .  S
C2243      C2248   1.386       .  A
C2243      C2244   1.404       .  A
C2243      S2249   1.708       .  A
C2244      C2245   1.404       .  A
C2244      H2255   1.083       .  S
C2245      C2254   1.374       .  A
C2245      C2246   1.383       .  A
C2246      C2247   1.405       .  A
C2246      S2252   1.707       .  A
C2247      C2248   1.406       .  A
C2247      H2256   1.083       .  S
C2248      C2251   1.377       .  A
S2249      C2250   1.725       .  A
C2250      C2251   1.389       .  A
C2251      H2257   1.083       .  S
S2252      C2253   1.733       .  A
C2253      C2254   1.396       .  A
C2254      H2258   1.080       .  S
C2259      C2264   1.385       .  A
C2259      C2260   1.406       .  A
C2259      S2265   1.712       .  A
C2260      C2261   1.407       .  A
C2260      H2271   1.083       .  S
C2261      C2270   1.376       .  A
C2261      C2262   1.387       .  A
C2262      C2263   1.401       .  A
C2262      S2268   1.708       .  A
C2263      C2264   1.403       .  A
C2263      H2272   1.083       .  S
C2264      C2267   1.371       .  A
S2265      C2266   1.730       .  A
C2266      C2267   1.391       .  A
C2267      H2273   1.082       .  S
S2268      C2269   1.721       .  A
C2269      C2270   1.388       .  A
C2270      H2274   1.083       .  S
C2275      C2280   1.387       .  A
C2275      C2276   1.403       .  A
C2275      S2281   1.708       .  A
C2276      C2277   1.403       .  A
C2276      H2287   1.084       .  S
C2277      C2286   1.373       .  A
C2277      C2278   1.387       .  A
C2278      C2279   1.405       .  A
C2278      S2284   1.711       .  A
C2279      C2280   1.405       .  A
C2279      H2288   1.084       .  S
C2280      C2283   1.376       .  A
S2281      C2282   1.726       .  A
C2282      C2283   1.390       .  A
C2283      H2289   1.084       .  S
S2284      C2285   1.724       .  A
C2285      C2286   1.387       .  A
C2286      H2290   1.084       .  S
C2291      C2296   1.385       .  A
C2291      C2292   1.405       .  A
C2291      S2297   1.708       .  A
C2292      C2293   1.405       .  A
C2292      H2303   1.083       .  S
C2293      C2302   1.375       .  A
C2293      C2294   1.387       .  A
C2294      C2295   1.399       .  A
C2294      S2300   1.703       .  A
C2295      C2296   1.400       .  A
C2295      H2304   1.083       .  S
C2296      C2299   1.369       .  A
S2297      C2298   1.731       .  A
C2298      C2299   1.390       .  A
C2298      C2339   1.491       .  S
C2299      H2305   1.082       .  S
S2300      C2301   1.720       .  A
C2301      C2302   1.387       .  A
C2302      H2306   1.083       .  S
C2307      C2312   1.386       .  A
C2307      C2308   1.402       .  A
C2307      S2313   1.704       .  A
C2308      C2309   1.402       .  A
C2308      H2319   1.083       .  S
C2309      C2318   1.372       .  A
C2309      C2310   1.387       .  A
C2310      C2311   1.407       .  A
C2310      S2316   1.712       .  A
C2311      C2312   1.407       .  A
C2311      H2654   1.083       .  S
C2312      C2649   1.377       .  A
S2313      C2314   1.726       .  A
C2314      C2649   1.390       .  A
C2314      C2343   1.486       .  S
C2315      C2646   1.374       .  A
C2315      C2648   1.388       .  A
C2315      H2321   1.082       .  S
S2316      C2317   1.726       .  A
C2317      C2318   1.386       .  A
C2318      H2322   1.083       .  S
H2320      C2645   1.083       .  S
C2323      C2328   1.387       .  A
C2323      C2324   1.401       .  A
C2323      S2663   1.703       .  A
C2324      C2325   1.401       .  A
C2324      H2669   1.082       .  S
C2325      C2334   1.372       .  A
C2325      C2326   1.387       .  A
C2326      C2327   1.407       .  A
C2326      S2332   1.712       .  A
C2327      C2328   1.406       .  A
C2327      H2336   1.082       .  S
C2328      C2331   1.378       .  A
S2329      C2657   1.703       .  A
S2329      C2664   1.724       .  A
C2330      C2331   1.390       .  A
C2330      C2341   1.485       .  S
C2330      S2663   1.726       .  A
C2331      H2337   1.082       .  S
S2332      C2333   1.726       .  A
C2333      C2334   1.385       .  A
C2334      H2338   1.083       .  S
H2335      C2658   1.083       .  S
C2339      C2340   1.403       .  A
C2339      C2344   1.406       .  A
C2340      C2341   1.404       .  A
C2340      H2345   1.082       .  S
C2341      C2342   1.409       .  A
C2342      C2343   1.409       .  A
C2342      H2346   1.083       .  S
C2343      C2344   1.406       .  A
C2344      H2347   1.082       .  S
C2348      C2349   1.405       .  A
C2348      C2353   1.409       .  A
C2348      C2587   1.498       .  S
C2349      C2350   1.404       .  A
C2349      H2354   1.080       .  S
C2350      C2351   1.405       .  A
C2350      C2616   1.484       .  S
C2351      C2352   1.410       .  A
C2351      H2355   1.082       .  S
C2352      C2353   1.412       .  A
C2352      C2600   1.496       .  S
C2353      H2356   1.079       .  S
C2357      C2358   1.405       .  A
C2357      C2362   1.406       .  A
C2357      C2366   1.502       .  S
C2358      C2359   1.404       .  A
C2358      H2363   1.082       .  S
C2359      C2360   1.409       .  A
C2359      C2552   1.481       .  S
C2360      C2361   1.405       .  A
C2360      H2364   1.083       .  S
C2361      C2362   1.399       .  A
C2361      C2539   1.477       .  S
C2362      H2365   1.079       .  S
C2366      C2367   1.406       .  A
C2366      C2371   1.408       .  A
C2367      C2368   1.403       .  A
C2367      H2372   1.081       .  S
C2368      C2369   1.407       .  A
C2368      C2488   1.477       .  S
C2369      C2370   1.403       .  A
C2369      H2373   1.084       .  S
C2370      C2371   1.398       .  A
C2370      C2504   1.475       .  S
C2371      H2374   1.079       .  S
C2375      C2412   1.454       .  S
C2375      C2568   1.471       .  S
C2375      N2393   1.353       .  A
N2376      N2393   1.328       .  A
N2376      N2398   1.321       .  A
C2377      C2415   1.458       .  S
C2377      H2422   1.081       .  S
C2377      N2402   1.338       .  A
H2378      C2419   1.082       .  S
C2379      H2408   1.082       .  S
C2379      N2403   1.340       .  A
Co2380     N2388   2.093       .  S
Co2380     N2420   2.099       .  S
Co2380     N2396   2.100       .  S
N2381      C2419   1.341       .  A
N2381      N2388   1.319       .  A
N2381     Co2382   2.075       .  S
Co2382     N2402   2.082       .  S
C2383      C2478   1.459   1_655  S
N2384      N2391   1.319       .  A
N2384      N2414   1.325       .  A
N2384     Co2417   2.082       .  S
N2386      C2415   1.354       .  A
N2386      N2396   1.327       .  A
H2387      C2412   1.081   1_545  S
N2388      N2409   1.326       .  A
N2389      N2407   1.319       .  A
N2389      N2394   1.324       .  A
C2390      C2418   1.464       .  S
C2390      C2635   1.475       .  S
C2390      N2394   1.348       .  A
N2391      C2406   1.341       .  A
N2391     Co2413   2.085       .  S
C2392      H2426   1.082       .  S
C2392      N2420   1.345       .  A
C2395      C2468   1.486       .  S
N2396      N2402   1.322       .  A
N2397      C2423   1.347       .  A
N2397      N2399   1.322       .  A
N2397     Co2413   2.108       .  S
N2398      C2412   1.337       .  A
N2399      N2427   1.320       .  A
N2399     Co2417   2.070       .  S
H2400      C2423   1.082       .  S
H2401      C2418   1.081       .  S
N2403     Co2417   2.075       .  S
N2404      N2416   1.327       .  A
N2404     Co2413   2.089       .  S
C2405      C2419   1.458       .  S
C2405      C2667   1.473       .  S
C2405      N2409   1.351       .  A
C2406      C2425   1.460       .  S
C2406      H2410   1.082       .  S
N2407      C2418   1.346       .  A
C2411      C2423   1.468       .  S
C2411      C2555   1.472       .  S
C2411      N2427   1.345       .  A
N2414      C2425   1.349       .  A
C2415      C2536   1.475       .  S
C2425      C2651   1.471       .  S
C2428      C2465   1.462       .  S
C2428      C2619   1.476       .  S
C2428      N2446   1.350       .  A
N2429      N2446   1.327       .  A
N2429      N2451   1.320       .  A
N2429     Co2466   2.085       .  S
C2430      H2475   1.082       .  S
C2430      N2455   1.346       .  A
C2432      C2436   1.459       .  S
C2432      H2461   1.082       .  S
C2432      N2456   1.343       .  A
Co2433     N2451   2.091       .  S
Co2433     N2473   2.102       .  S
Co2433     N2449   2.098       .  S
N2434      C2472   1.338       .  A
N2434      N2441   1.321       .  A
Co2435     N2438   2.095       .  S
Co2435     N2455   2.106       .  S
Co2435     N2442   2.108       .  S
C2436      C2603   1.471       .  S
C2436      N2474   1.351       .  A
N2437      N2467   1.323       .  A
N2437     Co2470   2.083       .  S
N2438      N2456   1.320       .  A
N2438      N2474   1.326       .  A
N2439      N2449   1.328       .  A
H2440      C2465   1.082       .  S
N2441      N2462   1.328       .  A
N2442      N2460   1.321       .  A
N2442      N2447   1.330       .  A
C2443      C2471   1.456       .  S
C2443      C2507   1.478       .  S
C2443      N2447   1.356       .  A
N2444      C2459   1.337       .  A
N2444     Co2466   2.072       .  S
C2445      C2448   1.467       .  S
C2445      H2479   1.082       .  S
C2445      N2473   1.347       .  A
C2448      C2491   1.471       .  S
C2448      N2469   1.345       .  A
N2450      C2476   1.343       .  A
N2450      N2452   1.321       .  A
N2451      C2465   1.342       .  A
N2452      N2480   1.326       .  A
H2453      C2476   1.081       .  S
H2454      C2471   1.081       .  S
N2456     Co2470   2.083       .  S
N2457      N2469   1.320       .  A
N2457      N2473   1.321       .  A
N2457     Co2466   2.072       .  S
C2458      C2472   1.454       .  S
C2458      C2523   1.472       .  S
C2458      N2462   1.352       .  A
C2459      H2463   1.082       .  S
N2460      C2471   1.335       .  A
N2460     Co2470   2.074       .  S
C2464      C2476   1.461       .  S
C2464      C2584   1.475       .  S
C2464      N2480   1.350       .  A
N2467      C2478   1.349   1_655  A
C2481      C2486   1.386       .  A
C2481      C2482   1.401       .  A
C2481      S2487   1.714       .  A
C2482      C2483   1.404       .  A
C2482      H2493   1.083       .  S
C2483      C2492   1.366       .  A
C2483      C2484   1.387       .  A
C2484      C2485   1.401       .  A
C2484      S2490   1.713       .  A
C2485      C2486   1.404       .  A
C2485      H2494   1.083       .  S
C2486      C2489   1.365       .  A
S2487      C2488   1.721       .  A
C2488      C2489   1.389       .  A
C2489      H2495   1.084       .  S
S2490      C2491   1.721       .  A
C2491      C2492   1.387       .  A
C2492      H2496   1.083       .  S
C2497      C2502   1.387       .  A
C2497      C2498   1.401       .  A
C2497      S2503   1.713       .  A
C2498      C2499   1.404       .  A
C2498      H2509   1.083       .  S
C2499      C2508   1.368       .  A
C2499      C2500   1.386       .  A
C2500      C2501   1.403       .  A
C2500      S2506   1.714       .  A
C2501      C2502   1.406       .  A
C2501      H2510   1.083       .  S
C2502      C2505   1.368       .  A
S2503      C2504   1.719       .  A
C2504      C2505   1.389       .  A
C2505      H2511   1.084       .  S
S2506      C2507   1.724       .  A
C2507      C2508   1.389       .  A
C2508      H2512   1.082       .  S
C2513      C2518   1.385       .  A
C2513      C2514   1.403       .  A
C2513      S2519   1.701       .  A
C2514      C2515   1.402       .  A
C2514      H2525   1.083       .  S
C2515      C2524   1.374       .  A
C2515      C2516   1.387       .  A
C2516      C2517   1.400       .  A
C2516      S2522   1.703       .  A
C2517      C2518   1.402       .  A
C2517      H2526   1.083       .  S
C2518      C2521   1.370       .  A
S2519      C2520   1.732       .  A
C2520      C2521   1.392       .  A
C2520      C2571   1.495       .  S
C2521      H2527   1.083       .  S
S2522      C2523   1.721       .  A
C2523      C2524   1.386       .  A
C2524      H2528   1.083       .  S
C2529      C2534   1.387       .  A
C2529      C2530   1.399       .  A
C2529      S2535   1.709       .  A
C2530      C2531   1.402       .  A
C2530      H2541   1.083       .  S
C2531      C2540   1.365       .  A
C2531      C2532   1.386       .  A
C2532      C2533   1.404       .  A
C2532      S2538   1.717       .  A
C2533      C2534   1.407       .  A
C2533      H2542   1.083       .  S
C2534      C2537   1.371       .  A
S2535      C2536   1.721       .  A
C2536      C2537   1.390       .  A
C2537      H2543   1.082       .  S
S2538      C2539   1.722       .  A
C2539      C2540   1.387       .  A
C2540      H2544   1.084       .  S
C2545      C2550   1.386       .  A
C2545      C2546   1.402       .  A
C2545      S2551   1.715       .  A
C2546      C2547   1.405       .  A
C2546      H2557   1.083       .  S
C2547      C2556   1.368       .  A
C2547      C2548   1.387       .  A
C2548      C2549   1.401       .  A
C2548      S2554   1.713       .  A
C2549      C2550   1.404       .  A
C2549      H2558   1.083       .  S
C2550      C2553   1.365       .  A
S2551      C2552   1.723       .  A
C2552      C2553   1.391       .  A
C2553      H2559   1.083       .  S
S2554      C2555   1.721       .  A
C2555      C2556   1.388       .  A
C2556      H2560   1.083       .  S
C2561      C2566   1.387       .  A
C2561      C2562   1.399       .  A
C2561      S2567   1.703       .  A
C2562      C2563   1.401       .  A
C2562      H2573   1.083       .  S
C2563      C2572   1.370       .  A
C2563      C2564   1.385       .  A
C2564      C2565   1.403       .  A
C2564      S2570   1.701       .  A
C2565      C2566   1.403       .  A
C2565      H2574   1.082       .  S
C2566      C2569   1.374       .  A
S2567      C2568   1.721       .  A
C2568      C2569   1.386       .  A
C2569      H2575   1.083       .  S
S2570      C2571   1.732       .  A
C2571      C2572   1.392       .  A
C2572      H2576   1.082       .  S
C2577      C2582   1.386       .  A
C2577      C2578   1.404       .  A
C2577      S2583   1.711       .  A
C2578      C2579   1.405       .  A
C2578      H2589   1.083       .  S
C2579      C2588   1.372       .  A
C2579      C2580   1.384       .  A
C2580      C2581   1.403       .  A
C2580      S2586   1.708       .  A
C2581      C2582   1.404       .  A
C2581      H2590   1.083       .  S
C2582      C2585   1.373       .  A
S2583      C2584   1.724       .  A
C2584      C2585   1.387       .  A
C2585      H2591   1.083       .  S
S2586      C2587   1.730       .  A
C2587      C2588   1.396       .  A
C2588      H2592   1.081       .  S
C2593      C2598   1.384       .  A
C2593      C2594   1.406       .  A
C2593      S2599   1.710       .  A
C2594      C2595   1.406       .  A
C2594      H2605   1.083       .  S
C2595      C2604   1.375       .  A
C2595      C2596   1.387       .  A
C2596      C2597   1.401       .  A
C2596      S2602   1.708       .  A
C2597      C2598   1.403       .  A
C2597      H2606   1.083       .  S
C2598      C2601   1.371       .  A
S2599      C2600   1.730       .  A
C2600      C2601   1.393       .  A
C2601      H2607   1.081       .  S
S2602      C2603   1.720       .  A
C2603      C2604   1.388       .  A
C2604      H2608   1.083       .  S
C2609      C2614   1.387       .  A
C2609      C2610   1.399       .  A
C2609      S2615   1.701       .  A
C2610      C2611   1.399       .  A
C2610      H2621   1.084       .  S
C2611      C2620   1.370       .  A
C2611      C2612   1.387       .  A
C2612      C2613   1.408       .  A
C2612      S2618   1.713       .  A
C2613      C2614   1.408       .  A
C2613      H2622   1.084       .  S
C2614      C2617   1.378       .  A
S2615      C2616   1.724       .  A
C2616      C2617   1.391       .  A
C2617      H2623   1.083       .  S
S2618      C2619   1.727       .  A
C2619      C2620   1.384       .  A
C2620      H2624   1.084       .  S
C2625      C2630   1.384       .  A
C2625      C2626   1.406       .  A
C2625      S2631   1.710       .  A
C2626      C2627   1.407       .  A
C2626      H2637   1.083       .  S
C2627      C2636   1.377       .  A
C2627      C2628   1.387       .  A
C2628      C2629   1.400       .  A
C2628      S2634   1.705       .  A
C2629      C2630   1.401       .  A
C2629      H2638   1.083       .  S
C2630      C2633   1.370       .  A
S2631      C2632   1.731       .  A
C2632      C2633   1.392       .  A
C2633      H2639   1.081       .  S
S2634      C2635   1.722       .  A
C2635      C2636   1.389       .  A
C2636      H2640   1.083       .  S
C2641      C2646   1.387       .  A
C2641      C2642   1.401       .  A
C2641      S2647   1.703       .  A
C2642      C2643   1.401       .  A
C2642      H2653   1.083       .  S
C2643      C2652   1.371       .  A
C2643      C2644   1.387       .  A
C2644      C2645   1.404       .  A
C2644      S2650   1.708       .  A
C2645      C2646   1.404       .  A
S2647      C2648   1.725       .  A
C2649      H2655   1.082       .  S
S2650      C2651   1.723       .  A
C2651      C2652   1.385       .  A
C2652      H2656   1.083       .  S
C2657      C2662   1.387       .  A
C2657      C2658   1.400       .  A
C2658      C2659   1.400       .  A
C2659      C2668   1.371       .  A
C2659      C2660   1.387       .  A
C2660      C2661   1.406       .  A
C2660      S2666   1.711       .  A
C2661      C2662   1.406       .  A
C2661      H2670   1.083       .  S
C2662      C2665   1.377       .  A
C2664      C2665   1.390       .  A
C2665      H2671   1.083       .  S
S2666      C2667   1.725       .  A
C2667      C2668   1.384       .  A
C2668      H2672   1.083       .  S
