geometry optimzed in LAMMPS
_audit_creation_date              2020-12-01 
_audit_creation_method            'lammps2cif' 
_symmetry_space_group_name_H-M    'P1' 
_symmetry_Int_Tables_number       1 
_symmetry_cell_setting            triclinic 
loop_ 
_symmetry_equiv_pos_as_xyz 
  x,y,z 
_cell_length_a                    83.46011855 
_cell_length_b                    84.66682471104902 
_cell_length_c                    34.2168636533489 
_cell_angle_alpha                 90.11228809948946 
_cell_angle_beta                  90.06667925931596 
_cell_angle_gamma                 133.19156997651305 
loop_ 
_atom_site_label 
_atom_site_type_symbol 
_atom_site_fract_x 
_atom_site_fract_y 
_atom_site_fract_z 
_atom_site_charge 
C1          C  0.43936503  0.89816086  0.46126132     0.80300
N2          N  0.43306587  0.88601245  0.49380993    -0.78000
C3          C  0.42857872  0.89079188  0.02743566     0.82800
N4          N  0.43003905  0.90772588  0.02862300    -0.77900
C5          C  0.43605858  0.91989255  0.99622021     0.82900
N6          N  0.44081646  0.91515914  0.46256246    -0.79600
C7          C  0.44817928  0.45521100  0.49928422     0.80300
N8          N  0.45006852  0.46508230  0.46582357    -0.78000
C9          C  0.44446172  0.47685442  0.46553480     0.82800
N10         N  0.43657242  0.47822440  0.49868369    -0.77900
C11         C  0.43469910  0.46853637  0.03210380     0.82900
N12         N  0.44062889  0.45710170  0.03244920    -0.79600
C13         C  0.39818767  0.78867062  0.22986203     0.02400
C14         C  0.40441096  0.79159857  0.26980102     0.02400
C15         C  0.39927950  0.77418736  0.28984695    -0.18100
C16         C  0.38646521  0.75360194  0.27273307     0.02400
C17         C  0.37986803  0.75053793  0.23306863     0.02400
C18         C  0.38633896  0.76831138  0.21214536    -0.18100
H19         H  0.38159180  0.76612991  0.18174995     0.04400
H20         H  0.40390373  0.77625590  0.32029828     0.04400
O21         O  0.29700096  0.61292859  0.44510833    -0.85200
O22         O  0.25428151  0.57246284  0.44806335    -0.82300
C23         C  0.25047360  0.55678211  0.43205170     0.98200
O24         O  0.25964772  0.55055352  0.44408252    -0.82300
O25         O  0.29666357  0.55999462  0.46949973    -0.85000
C26         C  0.31425601  0.57653372  0.45328490     1.02800
O27         O  0.32325910  0.59558146  0.46232506    -0.77700
O28         O  0.32516051  0.62827739  0.48334078    -0.77900
C29         C  0.31712966  0.62859925  0.45275965     1.02700
O30         O  0.29357347  0.61804121  0.02747147    -0.85200
O31         O  0.25359547  0.57697726  0.02995324    -0.82300
C32         C  0.24194214  0.55719609  0.03762515     0.98300
O33         O  0.24604137  0.54651475  0.02321453    -0.82300
O34         O  0.28231264  0.55545330  0.04971463    -0.84900
C35         C  0.30202968  0.56618727  0.05855443     1.02700
O36         O  0.31704059  0.58322724  0.04048099    -0.77700
O37         O  0.31115823  0.61147439  0.05973776    -0.77900
C38         C  0.30403829  0.62073884  0.05750827     1.02700
Cr39       Cr  0.27569575  0.59423145  0.98819021     1.93700
Cr40       Cr  0.27259071  0.55563332  0.99677233     1.93200
Cr41       Cr  0.31650035  0.60284071  0.01061738     1.39100
O42         O  0.28796058  0.58393342  0.99838324    -1.23000
C43         C  0.39048782  0.51851317  0.27373419     0.02400
C44         C  0.38720205  0.51496146  0.23267773     0.02400
C45         C  0.37552159  0.51899619  0.21298026    -0.18100
C46         C  0.36755000  0.52706315  0.23242726     0.02400
C47         C  0.37092365  0.53067908  0.27344016     0.02400
C48         C  0.38255067  0.52660716  0.29313442    -0.18100
H49         H  0.38538803  0.52970693  0.32450892     0.04400
H50         H  0.37266295  0.51587826  0.18176218     0.04400
C51         C  0.11761926  0.48868966  0.26554606     0.02400
C52         C  0.11581840  0.48805561  0.22410951     0.02400
C53         C  0.09550665  0.47806682  0.20710957    -0.18100
C54         C  0.07690477  0.46900733  0.22948840     0.02400
C55         C  0.07862812  0.46989785  0.27090397     0.02400
C56         C  0.09892338  0.47958372  0.28807567    -0.18100
H57         H  0.10023374  0.48016547  0.31963402     0.04400
H58         H  0.09417929  0.47746014  0.17553217     0.04400
C59         C  0.92568726  0.38865861  0.99846970     0.80300
N60         N  0.93627105  0.39263869  0.03268625    -0.78000
C61         C  0.95826377  0.40480573  0.03288891     0.82800
N62         N  0.96955673  0.41319392  0.99900253    -0.77900
C63         C  0.95930981  0.40946034  0.46478473     0.82900
N64         N  0.93724519  0.39706542  0.46441510    -0.79600
C65         C  0.90215558  0.37655040  0.99874975     0.80300
N66         N  0.89250837  0.37502167  0.03242550    -0.78000
C67         C  0.87126268  0.36553457  0.03200338     0.82800
N68         N  0.85986741  0.35777482  0.99805304    -0.77900
C69         C  0.86904511  0.35870340  0.46443062     0.82900
N70         N  0.89037188  0.36834228  0.46485337    -0.79600
C71         C  0.45355148  0.44194470  0.49956899     0.80300
N72         N  0.45221716  0.43244092  0.46600848    -0.78000
C73         C  0.45662864  0.41969189  0.46655811     0.82800
N74         N  0.46272454  0.41686850  0.50052699    -0.77900
C75         C  0.46463037  0.42664765  0.03401524     0.82900
N76         N  0.45985502  0.43910151  0.03351919    -0.79600
C77         C  0.77373983  0.34858435  0.27478351     0.02400
C78         C  0.77472062  0.35072751  0.23343893     0.02400
C79         C  0.75925075  0.35003238  0.21473505    -0.18100
C80         C  0.74184546  0.34529055  0.23528617     0.02400
C81         C  0.74096945  0.34320121  0.27652275     0.02400
C82         C  0.75734305  0.34557051  0.29558426    -0.18100
H83         H  0.75670367  0.34400823  0.32708782     0.04400
H84         H  0.75981810  0.35162493  0.18327259     0.04400
C85         C  0.49964886  0.36694389  0.27098184     0.02400
C86         C  0.50389530  0.37050095  0.23010111     0.02400
C87         C  0.51267153  0.36296667  0.21137373    -0.18100
C88         C  0.51722594  0.35201419  0.23189693     0.02400
C89         C  0.51357669  0.34912499  0.27281541     0.02400
C90         C  0.50442357  0.35615391  0.29128714    -0.18100
H91         H  0.50157487  0.35376610  0.32256112     0.04400
H92         H  0.51554272  0.36523618  0.18012232     0.04400
O93         O  0.57507087  0.24732798  0.45032129    -0.85200
O94         O  0.61593470  0.28623696  0.47238745    -0.82300
C95         C  0.62077314  0.30137223  0.45175601     0.98200
O96         O  0.61079231  0.30758357  0.45615640    -0.82300
O97         O  0.57673203  0.30463308  0.47383824    -0.85000
C98         C  0.56167255  0.29205304  0.44920149     1.02800
O99         O  0.55107298  0.27209950  0.45007862    -0.77700
O100        O  0.54247412  0.23472691  0.46330319    -0.77900
C101        C  0.55467819  0.23398053  0.44343440     1.02700
O102        O  0.56405652  0.23554552  0.03049449    -0.85200
O103        O  0.60318653  0.27500706  0.05276381    -0.82300
C104        C  0.61824824  0.29516878  0.05779663     0.98300
O105        O  0.61866433  0.30786584  0.03749543    -0.82300
O106        O  0.58113186  0.30038398  0.05502402    -0.84900
C107        C  0.56098316  0.29049077  0.05680443     1.02700
O108        O  0.54753548  0.27579079  0.03226212    -0.77700
O109        O  0.54230363  0.24051431  0.04568204    -0.77900
C110        C  0.54831791  0.23043501  0.05015248     1.02700
Cr111      Cr  0.58859731  0.26208662  0.00145597     1.93700
Cr112      Cr  0.59524712  0.30259937  0.00546120     1.93200
Cr113      Cr  0.54841870  0.25726523  0.99806149     1.39100
O114        O  0.57738419  0.27391997  0.00158400    -1.23000
C115        C  0.49116067  0.10665262  0.26632919     0.02400
C116        C  0.48808502  0.10553279  0.22528320     0.02400
C117        C  0.47887649  0.08643225  0.20509727    -0.18100
C118        C  0.47300135  0.06848930  0.22451644     0.02400
C119        C  0.47609901  0.06969533  0.26560133     0.02400
C120        C  0.48489920  0.08862613  0.28572377    -0.18100
H121        H  0.48713012  0.08941170  0.31705189     0.04400
H122        H  0.47663513  0.08567777  0.17378904     0.04400
C123        C  0.43489852  0.96040915  0.03258577     0.80300
N124        N  0.43304475  0.94314958  0.03130204    -0.78000
C125        C  0.43737680  0.93805312  0.49757802     0.82800
N126        N  0.44333417  0.95007897  0.46503900    -0.77900
C127        C  0.44513949  0.96721314  0.46597558     0.82900
N128        N  0.44115733  0.97242036  0.99975646    -0.79600
C129        C  0.45169635  0.98037280  0.43074263     0.01500
C130        C  0.47053317  0.00275149  0.43189380     0.04300
C131        C  0.47524754  0.01592776  0.40035332    -0.11800
C132        C  0.46159473  0.00662636  0.36703535     0.23600
C133        C  0.44404596  0.98402585  0.36425241    -0.12300
C134        C  0.43872958  0.97090313  0.39647504     0.05000
C135        C  0.46375697  0.02089553  0.33804608     0.27400
C136        C  0.45162541  0.02668686  0.34353067    -0.13000
C137        C  0.45498278  0.04194367  0.31884783     0.05500
C138        C  0.47096233  0.05191756  0.28893720    -0.09000
C139        C  0.48395206  0.04692526  0.28517331     0.06300
C140        C  0.47957425  0.03065061  0.30832069    -0.13400
Br141      Br  0.42692735  0.97139166  0.31675094    -0.05400
Br142      Br  0.48998845  0.01536936  0.47657359     0.00200
Br143      Br  0.43883796  0.05033444  0.32874327     0.00600
Br144      Br  0.49601471  0.02248404  0.30099426    -0.03800
Br145      Br  0.41253530  0.94041052  0.39477424     0.00700
Br146      Br  0.49967192  0.04691131  0.40358011    -0.03100
Br147      Br  0.43144783  0.01472468  0.38687579    -0.03900
Br148      Br  0.51031133  0.06496107  0.25430918     0.00000
C149        C  0.43138943  0.96729556  0.06929152     0.01500
C150        C  0.43964819  0.96774383  0.10599469     0.04300
C151        C  0.44207595  0.98034486  0.13689865    -0.11800
C152        C  0.43708523  0.99301405  0.13080635     0.23600
C153        C  0.42577194  0.98989518  0.09669703    -0.12300
C154        C  0.42227066  0.97648326  0.06659235     0.05000
C155        C  0.44648103  0.01170591  0.15696065     0.27400
C156        C  0.43340548  0.01051392  0.18506377    -0.13000
C157        C  0.44172802  0.02925288  0.20571577     0.05500
C158        C  0.46383437  0.04891038  0.20102089    -0.09000
C159        C  0.47683758  0.05011529  0.17229245     0.06300
C160        C  0.46816903  0.03157192  0.15050800    -0.13400
Br161      Br  0.41626711  0.00507144  0.09025786    -0.05400
Br162      Br  0.44893268  0.95249961  0.11431745     0.00200
Br163      Br  0.42174124  0.02867702  0.23522264     0.00600
Br164      Br  0.48581437  0.03346813  0.11064541    -0.03800
Br165      Br  0.40447584  0.97034537  0.02205462     0.00700
Br166      Br  0.45296469  0.98113347  0.18734290    -0.03100
Br167      Br  0.40393229  0.98323530  0.19454621    -0.03900
Br168      Br  0.50617997  0.07732041  0.16072420     0.00000
C169        C  0.54463360  0.21649520  0.41325572     0.01500
C170        C  0.52335301  0.19553266  0.41904892     0.04300
C171        C  0.51538999  0.17832888  0.39368039    -0.11800
C172        C  0.52730610  0.18215029  0.36004405     0.23600
C173        C  0.54732669  0.20324907  0.35195990    -0.12300
C174        C  0.55641251  0.22013453  0.37908379     0.05000
C175        C  0.51900579  0.16373679  0.33403966     0.27400
C176        C  0.52893674  0.15538467  0.33487152    -0.13000
C177        C  0.52035131  0.13718909  0.31194335     0.05500
C178        C  0.50084187  0.12633873  0.28991959    -0.09000
C179        C  0.48994170  0.13365944  0.29233668     0.06300
C180        C  0.49992108  0.15322980  0.31142360    -0.13400
Br181      Br  0.56216285  0.20886406  0.30326153    -0.05400
Br182      Br  0.50444353  0.18932239  0.46152115     0.00200
Br183      Br  0.53503532  0.12682521  0.31267408     0.00600
Br184      Br  0.48714162  0.16540383  0.30720182    -0.03800
Br185      Br  0.58485017  0.24817262  0.36788871     0.00700
Br186      Br  0.48841630  0.14908582  0.40593817    -0.03100
Br187      Br  0.55378155  0.16833693  0.36886439    -0.03900
Br188      Br  0.45960583  0.11498101  0.27707037     0.00000
C189        C  0.53669504  0.21190504  0.07764523     0.01500
C190        C  0.53041720  0.21285219  0.11543982     0.04300
C191        C  0.52141533  0.19597608  0.14233658    -0.11800
C192        C  0.51762169  0.17767985  0.13098642     0.23600
C193        C  0.52254465  0.17603971  0.09282763    -0.12300
C194        C  0.53268895  0.19328155  0.06664859     0.05000
C195        C  0.50983250  0.16051021  0.15930466     0.27400
C196        C  0.52527258  0.16085089  0.17712238    -0.13000
C197        C  0.51813687  0.14274954  0.19801598     0.05500
C198        C  0.49546411  0.12444080  0.20239089    -0.09000
C199        C  0.48002315  0.12383867  0.18318613     0.06300
C200        C  0.48722075  0.14208730  0.16258345    -0.13400
Br201      Br  0.51566784  0.15001716  0.07683540    -0.05400
Br202      Br  0.53521900  0.23760085  0.13188871     0.00200
Br203      Br  0.53952109  0.14188902  0.21514654     0.00600
Br204      Br  0.46630191  0.14157903  0.13677188    -0.03800
Br205      Br  0.54113658  0.19077572  0.01607041     0.00700
Br206      Br  0.51492853  0.19803586  0.19521497    -0.03100
Br207      Br  0.55632669  0.18563781  0.17022077    -0.03900
Br208      Br  0.44919268  0.09755712  0.18190240     0.00000
C209        C  0.52389476  0.34207081  0.20952485     0.01500
C210        C  0.54442317  0.35504469  0.19027858     0.04300
C211        C  0.55029700  0.34525822  0.16939001    -0.11800
C212        C  0.53557197  0.32251479  0.16664133     0.23600
C213        C  0.51510695  0.30957079  0.18555650    -0.12300
C214        C  0.50900114  0.31929021  0.20565455     0.05000
C215        C  0.54055452  0.31240096  0.13998291     0.27400
C216        C  0.53156828  0.30613003  0.10200682    -0.13000
C217        C  0.53733346  0.29798223  0.07545650     0.05500
C218        C  0.55290887  0.29674984  0.08628699    -0.09000
C219        C  0.56053263  0.30153596  0.12542818     0.06300
C220        C  0.55441135  0.30936711  0.15205892    -0.13400
Br221      Br  0.49517616  0.27841451  0.18280852    -0.05400
Br222      Br  0.56394387  0.38616437  0.18940245     0.00200
Br223      Br  0.52340275  0.28865296  0.02452163     0.00600
Br224      Br  0.56467049  0.31571945  0.20546229    -0.03800
Br225      Br  0.47899421  0.30138226  0.22232484     0.00700
Br226      Br  0.57835829  0.36296143  0.14338631    -0.03100
Br227      Br  0.51146676  0.30908313  0.08620679    -0.03900
Br228      Br  0.57754198  0.29540484  0.14414640     0.00000
C229        C  0.55598199  0.30095039  0.42064603     0.01500
C230        C  0.55899681  0.31918117  0.43086071     0.04300
C231        C  0.55196836  0.32642798  0.40532564    -0.11800
C232        C  0.54303477  0.31655890  0.36859590     0.23600
C233        C  0.54115034  0.29937438  0.35718769    -0.12300
C234        C  0.54733431  0.29137853  0.38312643     0.05000
C235        C  0.53523153  0.32415516  0.34252686     0.27400
C236        C  0.51280348  0.31315868  0.34198027    -0.13000
C237        C  0.50549033  0.32107544  0.31925882     0.05500
C238        C  0.52077166  0.34039617  0.29753141    -0.09000
C239        C  0.54341398  0.35251433  0.30201214     0.06300
C240        C  0.55051322  0.34379075  0.32217018    -0.13400
Br241      Br  0.53010740  0.28696115  0.30563089    -0.05400
Br242      Br  0.57247141  0.33485848  0.47968066     0.00200
Br243      Br  0.47484618  0.30627832  0.32116519     0.00600
Br244      Br  0.58133878  0.35921125  0.32332857    -0.03800
Br245      Br  0.54484956  0.26805963  0.36551192     0.00700
Br246      Br  0.55394838  0.34970552  0.42103537    -0.03100
Br247      Br  0.49236453  0.28785721  0.37423641    -0.03900
Br248      Br  0.56473609  0.38272355  0.28835489     0.00000
C249        C  0.63905375  0.31208105  0.42360263     0.01500
C250        C  0.65986797  0.32136655  0.43746354     0.04300
C251        C  0.67597084  0.32691621  0.41126116    -0.11800
C252        C  0.67144630  0.32339789  0.37088373     0.23600
C253        C  0.65133285  0.31581369  0.35661721    -0.12300
C254        C  0.63532616  0.31064272  0.38298174     0.05000
C255        C  0.68805699  0.32775686  0.34401825     0.27400
C256        C  0.70339118  0.34798319  0.32545413    -0.13000
C257        C  0.72082159  0.35314008  0.30394814     0.05500
C258        C  0.72289465  0.33797810  0.30042221    -0.09000
C259        C  0.70820547  0.31819393  0.32119931     0.06300
C260        C  0.69032819  0.31277042  0.34137380    -0.13400
Br261      Br  0.64551972  0.31175705  0.30117812    -0.05400
Br262      Br  0.66680343  0.32767978  0.49231403     0.00200
Br263      Br  0.74354701  0.38212420  0.28438072     0.00600
Br264      Br  0.66896930  0.28484174  0.36615702    -0.03800
Br265      Br  0.60853794  0.30186252  0.36356634     0.00700
Br266      Br  0.70416078  0.33891395  0.43073779    -0.03100
Br267      Br  0.70093885  0.36894404  0.33107462    -0.03900
Br268      Br  0.71320678  0.29905000  0.32536905     0.00000
C269        C  0.63648788  0.30410682  0.08544839     0.01500
C270        C  0.64808002  0.29749207  0.08252528     0.04300
C271        C  0.66621637  0.30682677  0.10703460    -0.11800
C272        C  0.67141496  0.32097526  0.13745647     0.23600
C273        C  0.65955975  0.32715425  0.14116263    -0.12300
C274        C  0.64329516  0.32003737  0.11342052     0.05000
C275        C  0.68882592  0.32848150  0.16603801     0.27400
C276        C  0.68520979  0.31325693  0.19134594    -0.13000
C277        C  0.70288744  0.31846449  0.21160700     0.05500
C278        C  0.72352539  0.33997743  0.21229989    -0.09000
C279        C  0.72699373  0.35564045  0.18819889     0.06300
C280        C  0.70976620  0.34974526  0.16448262    -0.13400
Br281      Br  0.66492299  0.34450518  0.18529032    -0.05400
Br282      Br  0.64023958  0.27663713  0.04346285     0.00200
Br283      Br  0.69977076  0.29507367  0.23026318     0.00600
Br284      Br  0.71512708  0.37044443  0.12849281    -0.03800
Br285      Br  0.63130269  0.33297689  0.11339176     0.00700
Br286      Br  0.68422480  0.30045040  0.09870027    -0.03100
Br287      Br  0.65609518  0.28478194  0.19676888    -0.03900
Br288      Br  0.75569987  0.38466104  0.18490528     0.00000
C289        C  0.47327964  0.42453512  0.06951952     0.01500
C290        C  0.46218741  0.41793574  0.10571879     0.04300
C291        C  0.46796015  0.41139334  0.13625009    -0.11800
C292        C  0.48491295  0.41169560  0.13080284     0.23600
C293        C  0.49751292  0.42058180  0.09639897    -0.12300
C294        C  0.49186123  0.42714533  0.06601073     0.05000
C295        C  0.48842907  0.40097235  0.15911030     0.27400
C296        C  0.50520749  0.41320823  0.18742969    -0.13000
C297        C  0.51048259  0.40344691  0.21036350     0.05500
C298        C  0.49867124  0.38118715  0.20569785    -0.09000
C299        C  0.48229754  0.36918568  0.17621363     0.06300
C300        C  0.47677310  0.37888165  0.15402813    -0.13400
Br301      Br  0.52207053  0.42292025  0.09030721    -0.05400
Br302      Br  0.43848044  0.41676104  0.11322090     0.00200
Br303      Br  0.53571630  0.42139183  0.24430545     0.00600
Br304      Br  0.45329752  0.36196666  0.11596672    -0.03800
Br305      Br  0.51006782  0.44019152  0.01980181     0.00700
Br306      Br  0.45222717  0.40118793  0.18505223    -0.03100
Br307      Br  0.52140221  0.44358637  0.19352873    -0.03900
Br308      Br  0.46758185  0.33948814  0.16494555     0.00000
C309        C  0.45729702  0.41066894  0.43028503     0.01500
C310        C  0.44525891  0.38832826  0.42791720     0.04300
C311        C  0.45001666  0.38042934  0.39845928    -0.11800
C312        C  0.46644977  0.39480847  0.37063532     0.23600
C313        C  0.47688146  0.41670878  0.37073764    -0.12300
C314        C  0.47265517  0.42474158  0.40090407     0.05000
C315        C  0.47473289  0.38774037  0.34434640     0.27400
C316        C  0.49509576  0.39428978  0.35263772    -0.13000
C317        C  0.50389202  0.38894432  0.32688197     0.05500
C318        C  0.49132439  0.37497121  0.29460188    -0.09000
C319        C  0.47007737  0.36701484  0.28842123     0.06300
C320        C  0.46255616  0.37462944  0.31147824    -0.13400
Br321      Br  0.49808268  0.43595334  0.33071014    -0.05400
Br322      Br  0.42260216  0.36865103  0.46575173     0.00200
Br323      Br  0.53328168  0.40090466  0.33672164     0.00600
Br324      Br  0.43549386  0.36703124  0.29830225    -0.03800
Br325      Br  0.48985009  0.45545820  0.40417335     0.00700
Br326      Br  0.43506963  0.35023243  0.39789911    -0.03100
Br327      Br  0.51064115  0.41002139  0.40030989    -0.03900
Br328      Br  0.44964175  0.34330842  0.25318908     0.00000
C329        C  0.79033405  0.35200637  0.20842865     0.01500
C330        C  0.78205978  0.33608829  0.17903343     0.04300
C331        C  0.79660886  0.33768925  0.15437352    -0.11800
C332        C  0.81944621  0.35504409  0.15867635     0.23600
C333        C  0.82777790  0.37026768  0.18877354    -0.12300
C334        C  0.81337490  0.36940250  0.21229045     0.05000
C335        C  0.83452812  0.35902067  0.12829726     0.27400
C336        C  0.84122504  0.34760330  0.12847735    -0.13000
C337        C  0.85420395  0.35043650  0.09773916     0.05500
C338        C  0.86067309  0.36486471  0.06713292    -0.09000
C339        C  0.85479488  0.37698889  0.06790200     0.06300
C340        C  0.84176978  0.37409622  0.09841597    -0.13400
Br341      Br  0.85917928  0.39273298  0.19661970    -0.05400
Br342      Br  0.75077498  0.31217684  0.17084443     0.00200
Br343      Br  0.86203573  0.33366623  0.09622771     0.00600
Br344      Br  0.83348619  0.39053727  0.09888232    -0.03800
Br345      Br  0.82566266  0.39406234  0.24462349     0.00700
Br346      Br  0.78531114  0.31626456  0.11399148    -0.03100
Br347      Br  0.83230547  0.32793602  0.17056846    -0.03900
Br348      Br  0.86453138  0.39752834  0.02686151     0.00000
C349        C  0.78855253  0.34811977  0.29759628     0.01500
C350        C  0.78714015  0.33059282  0.29347130     0.04300
C351        C  0.80112992  0.33016428  0.31516498    -0.11800
C352        C  0.81516327  0.34619080  0.34357165     0.23600
C353        C  0.81547559  0.36284291  0.34990921    -0.12300
C354        C  0.80242929  0.36400261  0.32673758     0.05000
C355        C  0.82877278  0.34512484  0.36879653     0.27400
C356        C  0.81932693  0.33145989  0.40154967    -0.13000
C357        C  0.83290586  0.33368715  0.42990727     0.05500
C358        C  0.85600855  0.35113398  0.42776835    -0.09000
C359        C  0.86540202  0.36335385  0.39280680     0.06300
C360        C  0.85161603  0.35983400  0.36296219    -0.13400
Br361      Br  0.83323122  0.38361905  0.39158171    -0.05400
Br362      Br  0.76398212  0.30553438  0.26290807     0.00200
Br363      Br  0.81958856  0.31284675  0.47190232     0.00600
Br364      Br  0.86385237  0.37646238  0.31526898    -0.03800
Br365      Br  0.80333229  0.38716918  0.33608887     0.00700
Br366      Br  0.80068046  0.30730940  0.30691506    -0.04300
Br367      Br  0.78795259  0.31130426  0.40973207    -0.03900
Br368      Br  0.89680028  0.38634398  0.38611283     0.00000
C369        C  0.05979796  0.46127833  0.29703195     0.01500
C370        C  0.05207922  0.44512523  0.32515553     0.04300
C371        C  0.03446314  0.43731443  0.34979180    -0.11800
C372        C  0.02350769  0.44447409  0.34495698     0.23600
C373        C  0.03093996  0.46025998  0.31671190    -0.12300
C374        C  0.04993448  0.46971514  0.29501052     0.05000
C375        C  0.00517457  0.43643005  0.37148340     0.27400
C376        C  0.98465605  0.41494329  0.36809434    -0.13000
C377        C  0.96874262  0.40608972  0.39755636     0.05500
C378        C  0.97278331  0.41921757  0.42901848    -0.09000
C379        C  0.99218034  0.44144281  0.42953730     0.06300
C380        C  0.00872193  0.44982500  0.40185423    -0.13400
Br381      Br  0.01505577  0.46895175  0.30778403    -0.05400
Br382      Br  0.06538143  0.43345171  0.33064254     0.00200
Br383      Br  0.94261105  0.37557661  0.39666413     0.00600
Br384      Br  0.03681296  0.47918743  0.40750345    -0.03800
Br385      Br  0.06418615  0.49634798  0.26793059     0.00700
Br386      Br  0.02563556  0.41714889  0.39100618    -0.03100
Br387      Br  0.97890418  0.39747096  0.32389022    -0.03900
Br388      Br  0.99616640  0.46042253  0.46858887     0.00000
C389        C  0.97050284  0.40969415  0.06924204     0.01500
C390        C  0.96979817  0.41981450  0.10117373     0.04300
C391        C  0.98465960  0.42803420  0.13252446    -0.11800
C392        C  0.00064764  0.42679515  0.13133514     0.23600
C393        C  0.00097888  0.41623284  0.09996451    -0.12300
C394        C  0.98555188  0.40714820  0.06962589     0.05000
C395        C  0.01848047  0.43816766  0.16085716     0.27400
C396        C  0.03704452  0.46040954  0.15631160    -0.13000
C397        C  0.05562171  0.47075578  0.18022103     0.05500
C398        C  0.05612187  0.45861426  0.20789345    -0.09000
C399        C  0.03767458  0.43608265  0.21103931     0.06300
C400        C  0.01851739  0.42620690  0.18923063    -0.13400
Br401      Br  0.02382395  0.41582117  0.09687794    -0.05400
Br402      Br  0.95017795  0.42449111  0.10046208     0.00200
Br403      Br  0.08076970  0.50138685  0.17252968     0.00600
Br404      Br  0.99270357  0.39581418  0.19588585    -0.03800
Br405      Br  0.98531426  0.39135432  0.02833414     0.00700
Br406      Br  0.98422226  0.44230265  0.17595137    -0.03100
Br407      Br  0.03761693  0.47628337  0.11487594    -0.03900
Br408      Br  0.03971320  0.41776074  0.23877752     0.00000
C409        C  0.36307357  0.53908098  0.29699467     0.01500
C410        C  0.37419138  0.56122399  0.29531714     0.04300
C411        C  0.36754639  0.56939171  0.31928578    -0.11800
C412        C  0.35030143  0.55566847  0.34599804     0.23600
C413        C  0.33976907  0.53386184  0.34904403    -0.12300
C414        C  0.34617027  0.52560013  0.32489585     0.05000
C415        C  0.34299903  0.56386469  0.37135605     0.27400
C416        C  0.35311191  0.57318481  0.40795918    -0.13000
C417        C  0.34413437  0.57812480  0.43429439     0.05500
C418        C  0.32480785  0.57333171  0.42429565    -0.09000
C419        C  0.31496270  0.56436928  0.38736685     0.06300
C420        C  0.32426391  0.55996505  0.36069891    -0.13400
Br421      Br  0.31679372  0.51545221  0.38733696    -0.05400
Br422      Br  0.40006556  0.58102966  0.26375826     0.00200
Br423      Br  0.35738936  0.59003170  0.48511961     0.00600
Br424      Br  0.31093906  0.54773685  0.30998734    -0.03800
Br425      Br  0.33210327  0.49598924  0.33224734     0.00700
Br426      Br  0.38233225  0.59948837  0.31655347    -0.03100
Br427      Br  0.37850152  0.57801089  0.42267965    -0.03900
Br428      Br  0.28847581  0.55761547  0.37338799     0.00000
C429        C  0.35609433  0.53170762  0.20876306     0.01500
C430        C  0.36744716  0.54757454  0.17894433     0.04300
C431        C  0.35634441  0.55108568  0.15538224    -0.11800
C432        C  0.33445886  0.54044586  0.16382619     0.23600
C433        C  0.32315466  0.52488091  0.19367018    -0.12300
C434        C  0.33339545  0.51926801  0.21356956     0.05000
C435        C  0.32354712  0.54560896  0.14058029     0.27400
C436        C  0.33061419  0.56611419  0.14474233    -0.13000
C437        C  0.32372937  0.57294589  0.11779543     0.05500
C438        C  0.30807857  0.55852649  0.08863492    -0.09000
C439        C  0.30019418  0.53755622  0.08568116     0.06300
C440        C  0.30816815  0.53123848  0.11125157    -0.13400
Br441      Br  0.29370834  0.51133372  0.20740033    -0.05400
Br442      Br  0.39814575  0.56470227  0.16919770     0.00200
Br443      Br  0.33727016  0.60266767  0.11962744     0.00600
Br444      Br  0.29915623  0.50345198  0.10440381    -0.03800
Br445      Br  0.31522861  0.49218012  0.24077751     0.00700
Br446      Br  0.37097509  0.57020635  0.11078359    -0.03100
Br447      Br  0.35051542  0.58516027  0.18673039    -0.03900
Br448      Br  0.28071488  0.51843107  0.04346841     0.00000
C449        C  0.23353318  0.54469037  0.40074766     0.01500
C450        C  0.21350867  0.52326854  0.40787895     0.04300
C451        C  0.19510558  0.51368161  0.38373997    -0.11800
C452        C  0.19706181  0.52475520  0.35056372     0.23600
C453        C  0.21764932  0.54514632  0.34106467    -0.12300
C454        C  0.23557054  0.55543880  0.36685698     0.05000
C455        C  0.17715376  0.51590791  0.32778470     0.27400
C456        C  0.16757619  0.49887459  0.30093550    -0.13000
C457        C  0.14773037  0.48942859  0.28199567     0.05500
C458        C  0.13844939  0.49838942  0.28648747    -0.09000
C459        C  0.14818400  0.51556564  0.31364649     0.06300
C460        C  0.16718724  0.52395601  0.33459132    -0.13400
Br461      Br  0.22086975  0.55921986  0.29334772    -0.05400
Br462      Br  0.21062181  0.50759176  0.45253406     0.00200
Br463      Br  0.13177196  0.46223913  0.25535271     0.00600
Br464      Br  0.17930932  0.54610909  0.37384126    -0.03800
Br465      Br  0.26254941  0.58458864  0.35632911     0.00700
Br466      Br  0.16674109  0.48616861  0.39794541    -0.03100
Br467      Br  0.18159596  0.48831354  0.29064885    -0.03900
Br468      Br  0.13542659  0.52750347  0.32363529     0.00000
C469        C  0.13462361  0.49809048  0.19702111     0.01500
C470        C  0.13357717  0.48519803  0.16852546     0.04300
C471        C  0.15072457  0.49488540  0.14146416    -0.11800
C472        C  0.16912190  0.51732919  0.14291292     0.23600
C473        C  0.16997471  0.53028925  0.17031455    -0.12300
C474        C  0.15234931  0.52083182  0.19609731     0.05000
C475        C  0.18758861  0.52728270  0.11550231     0.27400
C476        C  0.20401690  0.52727333  0.12470146    -0.13000
C477        C  0.22160361  0.53664554  0.09886393     0.05500
C478        C  0.22291468  0.54627617  0.06384678    -0.09000
C479        C  0.20625064  0.54599314  0.05442997     0.06300
C480        C  0.18861671  0.53651197  0.08024917    -0.13400
Br481      Br  0.19530644  0.56109584  0.17207381    -0.05400
Br482      Br  0.10840798  0.45429207  0.16493660     0.00200
Br483      Br  0.24426983  0.53701263  0.11260114     0.00600
Br484      Br  0.16578286  0.53606022  0.06745511    -0.03800
Br485      Br  0.15119885  0.53944404  0.22546454     0.00700
Br486      Br  0.14901267  0.47755229  0.10170614    -0.03100
Br487      Br  0.20245967  0.51468497  0.17326463    -0.03900
Br488      Br  0.20705890  0.55775577  0.00534614     0.00000
C489        C  0.36637736  0.72925693  0.21217880     0.01500
C490        C  0.34457399  0.71798930  0.20024528     0.04300
C491        C  0.33186262  0.69786321  0.18099668    -0.11800
C492        C  0.34170143  0.69038388  0.16801143     0.23600
C493        C  0.36399315  0.70252452  0.17668723    -0.12300
C494        C  0.37607743  0.72148751  0.19968947     0.05000
C495        C  0.32948004  0.67133790  0.14118209     0.27400
C496        C  0.32170391  0.65132961  0.15418162    -0.13000
C497        C  0.31212494  0.63413652  0.12748892     0.05500
C498        C  0.30980483  0.63672262  0.08771714    -0.09000
C499        C  0.31409344  0.65550157  0.07665383     0.06300
C500        C  0.32539520  0.67324759  0.10236501    -0.13400
Br501      Br  0.37840215  0.69407157  0.15414858    -0.05400
Br502      Br  0.33277195  0.73114095  0.20467423     0.00200
Br503      Br  0.29935685  0.60618778  0.14657113     0.00600
Br504      Br  0.33622210  0.70062182  0.08358988    -0.03800
Br505      Br  0.40677302  0.73826870  0.20922718     0.00700
Br506      Br  0.30103897  0.68080645  0.17102108    -0.03100
Br507      Br  0.32399001  0.64750566  0.20862829    -0.03900
Br508      Br  0.30327384  0.65716213  0.02815740     0.00000
C509        C  0.33134457  0.64792387  0.42742512     0.01500
C510        C  0.33183246  0.64553550  0.38682113     0.04300
C511        C  0.34333334  0.66368871  0.36237816    -0.11800
C512        C  0.35387031  0.68410492  0.37833047     0.23600
C513        C  0.35504249  0.68690474  0.41903463    -0.12300
C514        C  0.34505888  0.66906408  0.44365444     0.05000
C515        C  0.36266226  0.70226522  0.35205456     0.27400
C516        C  0.38497213  0.71734532  0.34145093    -0.13000
C517        C  0.39288417  0.73418966  0.31544294     0.05500
C518        C  0.37823158  0.73545150  0.29895199    -0.09000
C519        C  0.35630280  0.72124527  0.31227710     0.06300
C520        C  0.34844787  0.70445218  0.33809261    -0.13400
Br521      Br  0.36948561  0.71498404  0.44087137    -0.05400
Br522      Br  0.31937478  0.61810182  0.36530843     0.00200
Br523      Br  0.42404490  0.75639671  0.30537870     0.00600
Br524      Br  0.31831283  0.68477706  0.35577063    -0.03800
Br525      Br  0.35220272  0.67449036  0.49863950     0.00700
Br526      Br  0.34476408  0.66083622  0.30698429    -0.03100
Br527      Br  0.40460354  0.71501950  0.36331903    -0.03900
Br528      Br  0.33772872  0.72643476  0.30039680     0.00000
C529        C  0.44550314  0.48735635  0.42957252     0.01500
C530        C  0.43633837  0.47582065  0.39384113     0.04300
C531        C  0.43148414  0.48348280  0.36401439    -0.11800
C532        C  0.43513694  0.50219471  0.37019327     0.23600
C533        C  0.44631277  0.51483749  0.40401108    -0.12300
C534        C  0.45225689  0.50785422  0.43288138     0.05000
C535        C  0.42402918  0.50641584  0.34467860     0.27400
C536        C  0.43584166  0.52330741  0.31720167    -0.13000
C537        C  0.42508957  0.52789561  0.29550495     0.05500
C538        C  0.40202760  0.51404662  0.29757808    -0.09000
C539        C  0.39037276  0.49737221  0.32592417     0.06300
C540        C  0.40143838  0.49396420  0.34989688    -0.13400
Br541      Br  0.45131384  0.54046146  0.41285375    -0.05400
Br542      Br  0.42837281  0.44858746  0.38633119     0.00200
Br543      Br  0.44251612  0.55519728  0.26904106     0.00600
Br544      Br  0.38584486  0.47276372  0.39141055    -0.03800
Br545      Br  0.46955853  0.52643638  0.97721705     0.00700
Br546      Br  0.41776235  0.46732362  0.31594517    -0.03100
Br547      Br  0.46681310  0.54041478  0.31002652    -0.03900
Br548      Br  0.35943797  0.47960675  0.33429260     0.00000
C549        C  0.42586031  0.47034304  0.06729960     0.01500
C550        C  0.43909348  0.48111110  0.10090404     0.04300
C551        C  0.43187338  0.48586899  0.13188066    -0.11800
C552        C  0.41161508  0.48019997  0.12902378     0.23600
C553        C  0.39786258  0.46838066  0.09636818    -0.12300
C554        C  0.40488126  0.46325250  0.06577053     0.05000
C555        C  0.40620294  0.48917375  0.15752515     0.27400
C556        C  0.39016092  0.47600267  0.18643976    -0.13000
C557        C  0.38370113  0.48430818  0.21053012     0.05500
C558        C  0.39497567  0.50648712  0.20900871    -0.09000
C559        C  0.41147154  0.51973658  0.18037134     0.06300
C560        C  0.41648826  0.51091404  0.15401275    -0.13400
Br561      Br  0.37007749  0.46053079  0.09225713    -0.05400
Br562      Br  0.46790633  0.49108315  0.10315078     0.00200
Br563      Br  0.35721246  0.46443205  0.24051549     0.00600
Br564      Br  0.43662601  0.52828069  0.11136558    -0.03800
Br565      Br  0.38579443  0.44662807  0.02147429     0.00700
Br566      Br  0.45028826  0.50145842  0.17727653    -0.03100
Br567      Br  0.37657430  0.44639077  0.19205641    -0.03900
Br568      Br  0.42679214  0.54981105  0.17507769     0.00000
C569        C  0.44359001  0.89180931  0.42494344     0.01500
C570        C  0.45470529  0.88469594  0.42797029     0.04300
C571        C  0.45203402  0.87132781  0.39879507    -0.11800
C572        C  0.43980785  0.86655444  0.36490027     0.23600
C573        C  0.43212447  0.87685642  0.35871108    -0.12300
C574        C  0.43356492  0.88913606  0.38895445     0.05000
C575        C  0.43134432  0.84779557  0.33994660     0.27400
C576        C  0.44376518  0.84991871  0.30893840    -0.13000
C577        C  0.43532772  0.83163312  0.28627565     0.05500
C578        C  0.41389330  0.81133491  0.29322787    -0.09000
C579        C  0.40175594  0.80933279  0.32514112     0.06300
C580        C  0.41048945  0.82743501  0.34825384    -0.13400
Br581      Br  0.41776341  0.87221455  0.30991241    -0.05400
Br582      Br  0.47356628  0.89319745  0.97230793     0.00200
Br583      Br  0.45421273  0.83415506  0.24904847     0.00600
Br584      Br  0.39386106  0.82436680  0.39199655    -0.03800
Br585      Br  0.41990521  0.90024114  0.38159936     0.00700
Br586      Br  0.46311031  0.85772509  0.40710549    -0.03100
Br587      Br  0.47237484  0.87790897  0.29800250    -0.03900
Br588      Br  0.37294124  0.78183395  0.33819467     0.00000
C589        C  0.40339332  0.80604390  0.20500595     0.01500
C590        C  0.41725878  0.81337679  0.17222273     0.04300
C591        C  0.42045687  0.82803051  0.14595310    -0.11800
C592        C  0.41005469  0.83562037  0.15236775     0.23600
C593        C  0.39624043  0.82840425  0.18477351    -0.12300
C594        C  0.39235739  0.81312861  0.21037440     0.05000
C595        C  0.41290971  0.85034541  0.12355966     0.27400
C596        C  0.43141264  0.87275942  0.12591313    -0.13000
C597        C  0.43605986  0.88635408  0.09518614     0.05500
C598        C  0.42212636  0.87744645  0.06220076    -0.09000
C599        C  0.40286433  0.85523207  0.06107270     0.06300
C600        C  0.39823354  0.84167685  0.09179390    -0.13400
Br601      Br  0.38202747  0.83892577  0.19293008    -0.05400
Br602      Br  0.43124617  0.80270716  0.16191993     0.00200
Br603      Br  0.46236806  0.91679568  0.09704179     0.00600
Br604      Br  0.37228557  0.81108583  0.08975045    -0.03800
Br605      Br  0.36967091  0.79995445  0.24901318     0.00700
Br606      Br  0.43845909  0.83718755  0.10010349    -0.03100
Br607      Br  0.45081529  0.88447569  0.17051583    -0.03900
Br608      Br  0.38291042  0.84338561  0.01724623     0.00000
C609        C  0.43937702  0.89816545  0.96127307     0.80300
N610        N  0.43307402  0.88601432  0.99381917    -0.78000
C611        C  0.42857397  0.89079257  0.52742745     0.82800
N612        N  0.43003384  0.90772635  0.52861316    -0.77900
C613        C  0.43604961  0.91989022  0.49620760     0.82900
N614        N  0.44082862  0.91516390  0.96257581    -0.79600
C615        C  0.44817808  0.45521286  0.99930283     0.80300
N616        N  0.45006764  0.46508387  0.96584162    -0.78000
C617        C  0.44446124  0.47685626  0.96555091     0.82800
N618        N  0.43657207  0.47822701  0.99869912    -0.77900
C619        C  0.43469967  0.46853327  0.53208726     0.82900
N620        N  0.44062994  0.45709912  0.53243105    -0.79600
C621        C  0.39819059  0.78867945  0.72986564     0.02400
C622        C  0.40441656  0.79160472  0.76980260     0.02400
C623        C  0.39928268  0.77419069  0.78984193    -0.18100
C624        C  0.38646448  0.75360573  0.77272374     0.02400
C625        C  0.37986590  0.75054492  0.73306102     0.02400
C626        C  0.38633693  0.76832015  0.71214480    -0.18100
H627        H  0.38158817  0.76614077  0.68175093     0.04400
H628        H  0.40390838  0.77625684  0.82029189     0.04400
O629        O  0.29700679  0.61292998  0.94509734    -0.85200
O630        O  0.25428455  0.57246606  0.94805753    -0.82300
C631        C  0.25047297  0.55678331  0.93204574     0.98200
O632        O  0.25964745  0.55055426  0.94407132    -0.82300
O633        O  0.29666073  0.55998887  0.96948280    -0.85000
C634        C  0.31425279  0.57652616  0.95326410     1.02800
O635        O  0.32325858  0.59557502  0.96230267    -0.77700
O636        O  0.32516787  0.62827602  0.98332325    -0.77900
C637        C  0.31713636  0.62859920  0.95274495     1.02700
O638        O  0.29356201  0.61803755  0.52748030    -0.85200
O639        O  0.25358518  0.57697045  0.52995896    -0.82300
C640        C  0.24193472  0.55718980  0.53763313     0.98300
O641        O  0.24603772  0.54651116  0.52322478    -0.82300
O642        O  0.28231105  0.55545495  0.54972955    -0.84900
C643        C  0.30202803  0.56618967  0.55857110     1.02700
O644        O  0.31703846  0.58323214  0.54050272    -0.77700
O645        O  0.31114717  0.61147334  0.55975313    -0.77900
C646        C  0.30402460  0.62073528  0.55752064     1.02700
Cr647      Cr  0.27568824  0.59422787  0.48819887     1.93700
Cr648      Cr  0.27258982  0.55563406  0.49678565     1.93200
Cr649      Cr  0.31649528  0.60284335  0.51063644     1.39100
O650        O  0.28795609  0.58393328  0.49839676    -1.23000
C651        C  0.39048665  0.51850502  0.77372499     0.02400
C652        C  0.38720142  0.51495208  0.73266868     0.02400
C653        C  0.37551897  0.51898366  0.71296800    -0.18100
C654        C  0.36754483  0.52704885  0.73241158     0.02400
C655        C  0.37091797  0.53066616  0.77342420     0.02400
C656        C  0.38254687  0.52659730  0.79312184    -0.18100
H657        H  0.38538348  0.52969795  0.82449605     0.04400
H658        H  0.37266084  0.51586469  0.68175021     0.04400
C659        C  0.11760456  0.48866628  0.76555519     0.02400
C660        C  0.11580433  0.48803000  0.72411832     0.02400
C661        C  0.09549259  0.47803980  0.70711632    -0.18100
C662        C  0.07689090  0.46898314  0.72949353     0.02400
C663        C  0.07861370  0.46987542  0.77090925     0.02400
C664        C  0.09890842  0.47956118  0.78808285    -0.18100
H665        H  0.10021836  0.48014416  0.81964152     0.04400
H666        H  0.09416559  0.47743160  0.67553862     0.04400
C667        C  0.92569103  0.38866230  0.49845097     0.80300
N668        N  0.93627391  0.39264077  0.53266765    -0.78000
C669        C  0.95826660  0.40480819  0.53287221     0.82800
N670        N  0.96956070  0.41319844  0.49898718    -0.77900
C671        C  0.95930488  0.40945424  0.96480066     0.82900
N672        N  0.93724045  0.39705979  0.96443277    -0.79600
C673        C  0.90215920  0.37655344  0.49873127     0.80300
N674        N  0.89251222  0.37502427  0.53240782    -0.78000
C675        C  0.87126604  0.36553561  0.53198759     0.82800
N676        N  0.85986988  0.35777449  0.49803830    -0.77900
C677        C  0.86904294  0.35870339  0.96444615     0.82900
N678        N  0.89036905  0.36834045  0.96487100    -0.79600
C679        C  0.45354958  0.44194589  0.99958729     0.80300
N680        N  0.45221548  0.43244269  0.96602590    -0.78000
C681        C  0.45662741  0.41969403  0.96657390     0.82800
N682        N  0.46272375  0.41687060  0.00054198    -0.77900
C683        C  0.46463116  0.42664603  0.53399954     0.82900
N684        N  0.45985638  0.43910032  0.53350166    -0.79600
C685        C  0.77374715  0.34858774  0.77477439     0.02400
C686        C  0.77472685  0.35072925  0.73342943     0.02400
C687        C  0.75925625  0.35003311  0.71472553    -0.18100
C688        C  0.74185128  0.34529168  0.73527712     0.02400
C689        C  0.74097618  0.34320363  0.77651386     0.02400
C690        C  0.75735050  0.34557411  0.79557523    -0.18100
H691        H  0.75671176  0.34401285  0.82707909     0.04400
H692        H  0.75982285  0.35162463  0.68326279     0.04400
C693        C  0.49964719  0.36694764  0.77098877     0.02400
C694        C  0.50389251  0.37050395  0.73010752     0.02400
C695        C  0.51266858  0.36296966  0.71137937    -0.18100
C696        C  0.51722346  0.35201743  0.73190181     0.02400
C697        C  0.51357505  0.34912862  0.77282046     0.02400
C698        C  0.50442241  0.35615784  0.79129335    -0.18100
H699        H  0.50157444  0.35377032  0.82256737     0.04400
H700        H  0.51553902  0.36523872  0.68012776     0.04400
O701        O  0.57507264  0.24732822  0.95030860    -0.85200
O702        O  0.61593742  0.28623696  0.97237393    -0.82300
C703        C  0.62077690  0.30137263  0.95174214     0.98200
O704        O  0.61079684  0.30758488  0.95614147    -0.82300
O705        O  0.57673758  0.30463651  0.97382245    -0.85000
C706        C  0.56167748  0.29205661  0.94918657     1.02800
O707        O  0.55107763  0.27210302  0.95006323    -0.77700
O708        O  0.54247671  0.23472954  0.96328953    -0.77900
C709        C  0.55467990  0.23398149  0.94342219     1.02700
O710        O  0.56405481  0.23554364  0.53050683    -0.85200
O711        O  0.60318409  0.27500579  0.55277699    -0.82300
C712        C  0.61824549  0.29516753  0.55780976     0.98300
O713        O  0.61866036  0.30786431  0.53751034    -0.82300
O714        O  0.58112677  0.30038081  0.55503946    -0.84900
C715        C  0.56097797  0.29048730  0.55681930     1.02700
O716        O  0.54753042  0.27578649  0.53227792    -0.77700
O717        O  0.54230091  0.24051094  0.54569673    -0.77900
C718        C  0.54831613  0.23043237  0.55016592     1.02700
Cr719      Cr  0.58859498  0.26208563  0.50146912     1.93700
Cr720      Cr  0.59524243  0.30259698  0.50547659     1.93200
Cr721      Cr  0.54841487  0.25726182  0.49807650     1.39100
O722        O  0.57738056  0.27391772  0.50159876    -1.23000
C723        C  0.49115694  0.10664620  0.76633636     0.02400
C724        C  0.48808204  0.10552669  0.72529028     0.02400
C725        C  0.47887361  0.08642623  0.70510436    -0.18100
C726        C  0.47299821  0.06848319  0.72452375     0.02400
C727        C  0.47609523  0.06968894  0.76560884     0.02400
C728        C  0.48489512  0.08861965  0.78573124    -0.18100
H729        H  0.48712560  0.08940514  0.81705949     0.04400
H730        H  0.47663277  0.08567197  0.67379627     0.04400
C731        C  0.43489402  0.96040991  0.53257114     0.80300
N732        N  0.43303788  0.94314895  0.53128735    -0.78000
C733        C  0.43738477  0.93805486  0.99759231     0.82800
N734        N  0.44334085  0.95008037  0.96505343    -0.77900
C735        C  0.44514385  0.96721307  0.96599028     0.82900
N736        N  0.44115408  0.97242152  0.49974186    -0.79600
C737        C  0.45169854  0.98037184  0.93075729     0.01500
C738        C  0.47053464  0.00275074  0.93190672     0.04300
C739        C  0.47524705  0.01592607  0.90036611    -0.11800
C740        C  0.46159320  0.00662340  0.86704943     0.23600
C741        C  0.44404479  0.98402274  0.86426860    -0.12300
C742        C  0.43873017  0.97090104  0.89649174     0.05000
C743        C  0.46375463  0.02089137  0.83805833     0.27400
C744        C  0.45162207  0.02668171  0.84354043    -0.13000
C745        C  0.45497867  0.04193745  0.81885544     0.05500
C746        C  0.47095848  0.05191129  0.78894523    -0.09000
C747        C  0.48394914  0.04691995  0.78518386     0.06300
C748        C  0.47957209  0.03064630  0.80833335    -0.13400
Br749      Br  0.42692425  0.97138685  0.81676939    -0.05400
Br750      Br  0.48999154  0.01537007  0.97658432     0.00200
Br751      Br  0.43883274  0.05032724  0.82874791     0.00600
Br752      Br  0.49601407  0.02248115  0.80101081    -0.03800
Br753      Br  0.41253616  0.94040822  0.89479481     0.00700
Br754      Br  0.49967011  0.04690993  0.90359117    -0.03100
Br755      Br  0.43144442  0.01471999  0.88688535    -0.03900
Br756      Br  0.51030878  0.06495607  0.75432082     0.00000
C757        C  0.43138683  0.96729732  0.56927778     0.01500
C758        C  0.43964356  0.96774211  0.60598070     0.04300
C759        C  0.44207133  0.98034158  0.63688789    -0.11800
C760        C  0.43708278  0.99301277  0.63079937     0.23600
C761        C  0.42577190  0.98989789  0.59668949    -0.12300
C762        C  0.42227071  0.97648771  0.56658102     0.05000
C763        C  0.44647863  0.01170275  0.65695886     0.27400
C764        C  0.43340260  0.01050950  0.68506274    -0.13000
C765        C  0.44172521  0.02924733  0.70571920     0.05500
C766        C  0.46383194  0.04890476  0.70102750    -0.09000
C767        C  0.47683592  0.05011068  0.67229935     0.06300
C768        C  0.46816738  0.03156851  0.65051074    -0.13400
Br769      Br  0.41626983  0.00507692  0.59025565    -0.05400
Br770      Br  0.44892588  0.95249563  0.61429942     0.00200
Br771      Br  0.42173805  0.02867031  0.73522758     0.00600
Br772      Br  0.48581372  0.03346620  0.61064830    -0.03800
Br773      Br  0.40447926  0.97035568  0.52204192     0.00700
Br774      Br  0.45295716  0.98112528  0.68733181    -0.03100
Br775      Br  0.40392857  0.98323080  0.69453950    -0.03900
Br776      Br  0.50617929  0.07731584  0.66073636     0.00000
C777        C  0.54463386  0.21649476  0.91324628     0.01500
C778        C  0.52335340  0.19553269  0.91904352     0.04300
C779        C  0.51538911  0.17832750  0.89367800    -0.11800
C780        C  0.52730373  0.18214702  0.86004070     0.23600
C781        C  0.54732390  0.20324532  0.85195222    -0.12300
C782        C  0.55641105  0.22013227  0.87907317     0.05000
C783        C  0.51900249  0.16373205  0.83404012     0.27400
C784        C  0.52893359  0.15538011  0.83487403    -0.13000
C785        C  0.52034755  0.13718338  0.81194913     0.05500
C786        C  0.50083774  0.12633220  0.78992622    -0.09000
C787        C  0.48993722  0.13365253  0.79234216     0.06300
C788        C  0.49991688  0.15322367  0.81142597    -0.13400
Br789      Br  0.56215759  0.20885752  0.80325209    -0.05400
Br790      Br  0.50444587  0.18932502  0.96151735     0.00200
Br791      Br  0.53503115  0.12681910  0.81268326     0.00600
Br792      Br  0.48713675  0.16539695  0.80720215    -0.03800
Br793      Br  0.58484788  0.24816991  0.86787256     0.00700
Br794      Br  0.48841582  0.14908521  0.90594127    -0.03100
Br795      Br  0.55377968  0.16833446  0.86886479    -0.03900
Br796      Br  0.45960083  0.11497282  0.77707837     0.00000
C797        C  0.53669429  0.21190236  0.57765839     0.01500
C798        C  0.53041881  0.21284989  0.61545517     0.04300
C799        C  0.52141766  0.19597357  0.64235108    -0.11800
C800        C  0.51762209  0.17767661  0.63099791     0.23600
C801        C  0.52254324  0.17603642  0.59283741    -0.12300
C802        C  0.53268714  0.19327860  0.56665926     0.05000
C803        C  0.50983225  0.16050595  0.65931429     0.27400
C804        C  0.52527166  0.16084522  0.67713055    -0.13000
C805        C  0.51813504  0.14274326  0.69802331     0.05500
C806        C  0.49546208  0.12443513  0.70239806    -0.09000
C807        C  0.48002180  0.12383420  0.68319400     0.06300
C808        C  0.48722027  0.14208359  0.66259294    -0.13400
Br809      Br  0.51566430  0.15001326  0.57684138    -0.05400
Br810      Br  0.53522317  0.23759950  0.63190775     0.00200
Br811      Br  0.53951817  0.14188116  0.71515363     0.00600
Br812      Br  0.46630224  0.14157719  0.63678366    -0.03800
Br813      Br  0.54113303  0.19077306  0.51607881     0.00700
Br814      Br  0.51493462  0.19803409  0.69523225    -0.03100
Br815      Br  0.55632599  0.18563110  0.67022850    -0.03900
Br816      Br  0.44919114  0.09755319  0.68190864     0.00000
C817        C  0.52389159  0.34207360  0.70952886     0.01500
C818        C  0.54441999  0.35504704  0.69028269     0.04300
C819        C  0.55029344  0.34526010  0.66939453    -0.11800
C820        C  0.53556801  0.32251660  0.66664604     0.23600
C821        C  0.51510281  0.30957307  0.68556056    -0.12300
C822        C  0.50899746  0.31929300  0.70565831     0.05000
C823        C  0.54055070  0.31240207  0.63998986     0.27400
C824        C  0.53156439  0.30612978  0.60201381    -0.13000
C825        C  0.53732872  0.29798006  0.57546647     0.05500
C826        C  0.55290367  0.29674742  0.58629954    -0.09000
C827        C  0.56052785  0.30153542  0.62544055     0.06300
C828        C  0.55440727  0.30936828  0.65206846    -0.13400
Br829      Br  0.49517130  0.27841673  0.68281294    -0.05400
Br830      Br  0.56394121  0.38616676  0.68940640     0.00200
Br831      Br  0.52339754  0.28864852  0.52453202     0.00600
Br832      Br  0.56466731  0.31572335  0.70547143    -0.03800
Br833      Br  0.47899063  0.30138581  0.72232866     0.00700
Br834      Br  0.57835491  0.36296276  0.64339168    -0.03100
Br835      Br  0.51146421  0.30908395  0.58620949    -0.03900
Br836      Br  0.57753701  0.29540477  0.64416255     0.00000
C837        C  0.55598599  0.30095392  0.92063350     0.01500
C838        C  0.55900010  0.31918400  0.93085086     0.04300
C839        C  0.55196953  0.32642990  0.90531917    -0.11800
C840        C  0.54303473  0.31656082  0.86858982     0.23600
C841        C  0.54115086  0.29937693  0.85717891    -0.12300
C842        C  0.54733706  0.29138203  0.88311437     0.05000
C843        C  0.53523082  0.32415727  0.84252342     0.27400
C844        C  0.51280277  0.31316089  0.84197904    -0.13000
C845        C  0.50548934  0.32107843  0.81926115     0.05500
C846        C  0.52077035  0.34039967  0.79753495    -0.09000
C847        C  0.54341270  0.35251759  0.80201364     0.06300
C848        C  0.55051219  0.34379337  0.82216797    -0.13400
Br849      Br  0.53010534  0.28696307  0.80562324    -0.05400
Br850      Br  0.57247684  0.33486170  0.97966983     0.00200
Br851      Br  0.47484539  0.30628172  0.82117081     0.00600
Br852      Br  0.58133771  0.35921359  0.82332286    -0.03800
Br853      Br  0.54485402  0.26806471  0.86549592     0.00700
Br854      Br  0.55394821  0.34970609  0.92103324    -0.03100
Br855      Br  0.49236425  0.28785835  0.87423302    -0.03900
Br856      Br  0.56473463  0.38272717  0.78835885     0.00000
C857        C  0.63905786  0.31208089  0.92358976     0.01500
C858        C  0.65987177  0.32136599  0.93745196     0.04300
C859        C  0.67597520  0.32691614  0.91125049    -0.11800
C860        C  0.67145137  0.32339817  0.87087281     0.23600
C861        C  0.65133800  0.31581373  0.85660513    -0.12300
C862        C  0.63533092  0.31064268  0.88296865     0.05000
C863        C  0.68806271  0.32775776  0.84400828     0.27400
C864        C  0.70339625  0.34798392  0.82544329    -0.13000
C865        C  0.72082717  0.35314147  0.80393809     0.05500
C866        C  0.72290131  0.33798024  0.80041356    -0.09000
C867        C  0.70821278  0.31819628  0.82119138     0.06300
C868        C  0.69033508  0.31277215  0.84136537    -0.13400
Br869      Br  0.64552546  0.31175680  0.80116585    -0.05400
Br870      Br  0.66680599  0.32767775  0.99230309     0.00200
Br871      Br  0.74355172  0.38212548  0.78436952     0.00600
Br872      Br  0.66897715  0.28484368  0.86614974    -0.03800
Br873      Br  0.60854294  0.30186240  0.86355156     0.00700
Br874      Br  0.70416502  0.33891421  0.93072868    -0.03100
Br875      Br  0.70094221  0.36894364  0.83106119    -0.03900
Br876      Br  0.71321542  0.29905344  0.82536217     0.00000
C877        C  0.63648647  0.30410594  0.58545836     0.01500
C878        C  0.64807956  0.29749239  0.58252961     0.04300
C879        C  0.66621734  0.30682769  0.60703526    -0.11800
C880        C  0.67141671  0.32097560  0.63745903     0.23600
C881        C  0.65956074  0.32715350  0.64117075    -0.12300
C882        C  0.64329422  0.32003582  0.61343255     0.05000
C883        C  0.68882906  0.32848193  0.66603711     0.27400
C884        C  0.68521413  0.31325739  0.69134321    -0.13000
C885        C  0.70289267  0.31846510  0.71160101     0.05500
C886        C  0.72353066  0.33997800  0.71229187    -0.09000
C887        C  0.72699807  0.35564078  0.68819180     0.06300
C888        C  0.70976934  0.34974559  0.66447948    -0.13400
Br889      Br  0.66492575  0.34450412  0.68530061    -0.05400
Br890      Br  0.64023826  0.27663816  0.54346455     0.00200
Br891      Br  0.69977668  0.29507459  0.73025653     0.00600
Br892      Br  0.71512830  0.37044468  0.62849231    -0.03800
Br893      Br  0.63129925  0.33297288  0.61341222     0.00700
Br894      Br  0.68422671  0.30045298  0.59869340    -0.03100
Br895      Br  0.65609983  0.28478233  0.69676845    -0.03900
Br896      Br  0.75570434  0.38466100  0.68489428     0.00000
C897        C  0.47327899  0.42453300  0.56950575     0.01500
C898        C  0.46218645  0.41793538  0.60570455     0.04300
C899        C  0.46795855  0.41139398  0.63623925    -0.11800
C900        C  0.48491096  0.41169536  0.63079600     0.23600
C901        C  0.49751110  0.42057959  0.59639213    -0.12300
C902        C  0.49186001  0.42714205  0.56600034     0.05000
C903        C  0.48842630  0.40097300  0.65910793     0.27400
C904        C  0.50520444  0.41320977  0.68742769    -0.13000
C905        C  0.51047882  0.40344900  0.71036588     0.05500
C906        C  0.49866729  0.38118901  0.70570368    -0.09000
C907        C  0.48229330  0.36918641  0.67622006     0.06300
C908        C  0.47676947  0.37888182  0.65403052    -0.13400
Br909      Br  0.52206843  0.42291724  0.59030583    -0.05400
Br910      Br  0.43847982  0.41676162  0.61320180     0.00200
Br911      Br  0.53571169  0.42139484  0.74430960     0.00600
Br912      Br  0.45329367  0.36196540  0.61596976    -0.03800
Br913      Br  0.51006693  0.44018560  0.51979155     0.00700
Br914      Br  0.45222539  0.40119138  0.68504110    -0.03100
Br915      Br  0.52139986  0.44358835  0.69352111    -0.03900
Br916      Br  0.46757646  0.33948795  0.66495804     0.00000
C917        C  0.45729640  0.41067196  0.93029990     0.01500
C918        C  0.44525865  0.38833140  0.92793052     0.04300
C919        C  0.45001699  0.38043322  0.89847201    -0.11800
C920        C  0.46645062  0.39481302  0.87064916     0.23600
C921        C  0.47688238  0.41671337  0.87075353    -0.12300
C922        C  0.47265515  0.42474531  0.90092016     0.05000
C923        C  0.47473338  0.38774513  0.84435811     0.27400
C924        C  0.49509614  0.39429397  0.85264769    -0.13000
C925        C  0.50389184  0.38894857  0.82688999     0.05500
C926        C  0.49132352  0.37497551  0.79461012    -0.09000
C927        C  0.47007661  0.36701971  0.78843123     0.06300
C928        C  0.46255623  0.37463475  0.81148964    -0.13400
Br929      Br  0.49808471  0.43595914  0.83072825    -0.05400
Br930      Br  0.42260145  0.36865326  0.96576377     0.00200
Br931      Br  0.53328184  0.40090917  0.83672636     0.00600
Br932      Br  0.43549448  0.36703790  0.79831504    -0.03800
Br933      Br  0.48984921  0.45546171  0.90419111     0.00700
Br934      Br  0.43506986  0.35023629  0.89790938    -0.03100
Br935      Br  0.51064202  0.41002449  0.90032026    -0.03900
Br936      Br  0.44963986  0.34331328  0.75319996     0.00000
C937        C  0.79033982  0.35200747  0.70841890     0.01500
C938        C  0.78206497  0.33608866  0.67902486     0.04300
C939        C  0.79661354  0.33768945  0.65436356    -0.11800
C940        C  0.81945095  0.35504467  0.65866419     0.23600
C941        C  0.82778326  0.37026873  0.68876069    -0.12300
C942        C  0.81338075  0.36940386  0.71227863     0.05000
C943        C  0.83453220  0.35902114  0.62828361     0.27400
C944        C  0.84123050  0.34760501  0.62846386    -0.13000
C945        C  0.85420940  0.35043861  0.59772514     0.05500
C946        C  0.86067682  0.36486572  0.56711785    -0.09000
C947        C  0.85479727  0.37698874  0.56788677     0.06300
C948        C  0.84177238  0.37409583  0.59840147    -0.13400
Br949      Br  0.85918482  0.39273427  0.69660443    -0.05400
Br950      Br  0.75078002  0.31217631  0.67083950     0.00200
Br951      Br  0.86204395  0.33367071  0.59621497     0.00600
Br952      Br  0.83348726  0.39053555  0.59886795    -0.03800
Br953      Br  0.82566925  0.39406447  0.74460982     0.00700
Br954      Br  0.78531506  0.31626406  0.61398262    -0.03100
Br955      Br  0.83231299  0.32793900  0.67055612    -0.03900
Br956      Br  0.86453194  0.39752716  0.52684532     0.00000
C957        C  0.78856059  0.34812450  0.79758814     0.01500
C958        C  0.78714799  0.33059723  0.79346740     0.04300
C959        C  0.80113653  0.33016860  0.81516576    -0.11800
C960        C  0.81516910  0.34619563  0.84357222     0.23600
C961        C  0.81548227  0.36284863  0.84990431    -0.12300
C962        C  0.80243708  0.36400824  0.82672846     0.05000
C963        C  0.82877644  0.34512904  0.86880298     0.27400
C964        C  0.81932814  0.33146438  0.90155656    -0.13000
C965        C  0.83290481  0.33369041  0.92991806     0.05500
C966        C  0.85600787  0.35113582  0.92778224    -0.09000
C967        C  0.86540376  0.36335568  0.89282094     0.06300
C968        C  0.85161994  0.35983695  0.86297274    -0.13400
Br969      Br  0.83323699  0.38362580  0.89157592    -0.05400
Br970      Br  0.76399098  0.30553838  0.76290383     0.00200
Br971      Br  0.81958381  0.31284972  0.97191322     0.00600
Br972      Br  0.86385967  0.37646496  0.81527940    -0.03800
Br973      Br  0.80334061  0.38717559  0.83607355     0.00700
Br974      Br  0.80068595  0.30731252  0.80692343    -0.04300
Br975      Br  0.78795344  0.31131051  0.90973338    -0.03900
Br976      Br  0.89680257  0.38634427  0.88613132     0.00000
C977        C  0.05978375  0.46125759  0.79703620     0.01500
C978        C  0.05206476  0.44510533  0.82516195     0.04300
C979        C  0.03445064  0.43729756  0.84980078    -0.11800
C980        C  0.02349690  0.44445902  0.84496602     0.23600
C981        C  0.03092891  0.46024361  0.81671813    -0.12300
C982        C  0.04992192  0.46969608  0.79501408     0.05000
C983        C  0.00516528  0.43641745  0.87149405     0.27400
C984        C  0.98464628  0.41493077  0.86810909    -0.13000
C985        C  0.96873450  0.40607922  0.89757335     0.05500
C986        C  0.97277700  0.41920915  0.92903293    -0.09000
C987        C  0.99217436  0.44143426  0.92954759     0.06300
C988        C  0.00871460  0.44981439  0.90186272    -0.13400
Br989      Br  0.01504637  0.46893720  0.80779013    -0.05400
Br990      Br  0.06536409  0.43342889  0.83064826     0.00200
Br991      Br  0.94260306  0.37556597  0.89668824     0.00600
Br992      Br  0.03680646  0.47917664  0.90750687    -0.03800
Br993      Br  0.06417397  0.49632776  0.76792960     0.00700
Br994      Br  0.02562354  0.41713376  0.89101855    -0.03100
Br995      Br  0.97889162  0.39745569  0.82390770    -0.03900
Br996      Br  0.99616278  0.46041651  0.96859609     0.00000
C997        C  0.97050374  0.40969367  0.56922642     0.01500
C998        C  0.96979622  0.41981012  0.60116198     0.04300
C999        C  0.98465402  0.42802488  0.63251719    -0.11800
C1000       C  0.00064103  0.42678445  0.63132918     0.23600
C1001       C  0.00097482  0.41622565  0.59995491    -0.12300
C1002       C  0.98555183  0.40714651  0.56961060     0.05000
C1003       C  0.01847143  0.43815349  0.66085537     0.27400
C1004       C  0.03703750  0.46039500  0.65631365    -0.13000
C1005       C  0.05561340  0.47073775  0.68022451     0.05500
C1006       C  0.05610952  0.45859339  0.70789673    -0.09000
C1007       C  0.03765962  0.43606239  0.71104099     0.06300
C1008       C  0.01850440  0.42618980  0.68922822    -0.13400
Br1009     Br  0.02381795  0.41581111  0.59687253    -0.05400
Br1010     Br  0.95017719  0.42448822  0.60045064     0.00200
Br1011     Br  0.08076532  0.50136799  0.67253538     0.00600
Br1012     Br  0.99268789  0.39579748  0.69587678    -0.03800
Br1013     Br  0.98531825  0.39135820  0.52831222     0.00700
Br1014     Br  0.98421331  0.44228852  0.67594918    -0.03100
Br1015     Br  0.03761426  0.47627308  0.61488120    -0.03900
Br1016     Br  0.03969161  0.41773697  0.73878482     0.00000
C1017       C  0.36306556  0.53906692  0.79697440     0.01500
C1018       C  0.37418176  0.56120939  0.79529396     0.04300
C1019       C  0.36753492  0.56937638  0.81925927    -0.11800
C1020       C  0.35028854  0.55565260  0.84596901     0.23600
C1021       C  0.33975628  0.53384598  0.84901507    -0.12300
C1022       C  0.34616075  0.52558551  0.82487277     0.05000
C1023       C  0.34298752  0.56384942  0.87132969     0.27400
C1024       C  0.35310065  0.57316739  0.90793356    -0.13000
C1025       C  0.34412572  0.57810953  0.93427054     0.05500
C1026       C  0.32480127  0.57332060  0.92427325    -0.09000
C1027       C  0.31495478  0.56435865  0.88734489     0.06300
C1028       C  0.32425386  0.55995280  0.86067465    -0.13400
Br1029     Br  0.31677698  0.51543478  0.88730093    -0.05400
Br1030     Br  0.40005622  0.58101531  0.76373547     0.00200
Br1031     Br  0.35738111  0.59001333  0.98509657     0.00600
Br1032     Br  0.31092842  0.54772704  0.80996256    -0.03800
Br1033     Br  0.33209717  0.49597603  0.83223015     0.00700
Br1034     Br  0.38232066  0.59947298  0.81652679    -0.03100
Br1035     Br  0.37848705  0.57798752  0.92265255    -0.03900
Br1036     Br  0.28846850  0.55760694  0.87337049     0.00000
C1037       C  0.35608773  0.53169109  0.70874491     0.01500
C1038       C  0.36743966  0.54755790  0.67892599     0.04300
C1039       C  0.35633672  0.55107054  0.65536865    -0.11800
C1040       C  0.33445200  0.54043218  0.66381733     0.23600
C1041       C  0.32314810  0.52486562  0.69365903    -0.12300
C1042       C  0.33338901  0.51925146  0.71355335     0.05000
C1043       C  0.32354147  0.54559944  0.64057969     0.27400
C1044       C  0.33061324  0.56610660  0.64474666    -0.13000
C1045       C  0.32373103  0.57294284  0.61780448     0.05500
C1046       C  0.30807691  0.55852577  0.58864557    -0.09000
C1047       C  0.30018755  0.53755342  0.58568790     0.06300
C1048       C  0.30815980  0.53123152  0.61125185    -0.13400
Br1049     Br  0.29370265  0.51131884  0.70739519    -0.05400
Br1050     Br  0.39813747  0.56468415  0.66917386     0.00200
Br1051     Br  0.33728057  0.60266747  0.61964006     0.00600
Br1052     Br  0.29914200  0.50344273  0.60439536    -0.03800
Br1053     Br  0.31522281  0.49216239  0.74075748     0.00700
Br1054     Br  0.37096641  0.57019226  0.61077117    -0.03100
Br1055     Br  0.35051756  0.58514906  0.68673491    -0.03900
Br1056     Br  0.28070363  0.51843037  0.54347720     0.00000
C1057       C  0.23352715  0.54468857  0.90075024     0.01500
C1058       C  0.21350439  0.52326674  0.90789033     0.04300
C1059       C  0.19509832  0.51367526  0.88375664    -0.11800
C1060       C  0.19704993  0.52474352  0.85057569     0.23600
C1061       C  0.21763522  0.54513469  0.84106875    -0.12300
C1062       C  0.23555880  0.55543259  0.86685745     0.05000
C1063       C  0.17713943  0.51589114  0.82779946     0.27400
C1064       C  0.16756172  0.49885506  0.80095680    -0.13000
C1065       C  0.14771566  0.48940697  0.78201541     0.05500
C1066       C  0.13843449  0.49836796  0.78649918    -0.09000
C1067       C  0.14816834  0.51554592  0.81365357     0.06300
C1068       C  0.16717197  0.52393873  0.83459990    -0.13400
Br1069     Br  0.22084947  0.55920038  0.79334463    -0.05400
Br1070     Br  0.21062374  0.50759591  0.95255009     0.00200
Br1071     Br  0.13175720  0.46221512  0.75538150     0.00600
Br1072     Br  0.17929345  0.54609471  0.87384322    -0.03800
Br1073     Br  0.26253205  0.58458388  0.85632146     0.00700
Br1074     Br  0.16673627  0.48616320  0.89797479    -0.03100
Br1075     Br  0.18158174  0.48829340  0.79068060    -0.03900
Br1076     Br  0.13540923  0.52748269  0.82363458     0.00000
C1077       C  0.13461090  0.49806651  0.69703204     0.01500
C1078       C  0.13356865  0.48517496  0.66854114     0.04300
C1079       C  0.15071703  0.49486400  0.64148087    -0.11800
C1080       C  0.16911092  0.51730901  0.64292474     0.23600
C1081       C  0.16995945  0.53026787  0.67032225    -0.12300
C1082       C  0.15233314  0.52080836  0.69610409     0.05000
C1083       C  0.18757813  0.52726542  0.61551250     0.27400
C1084       C  0.20401030  0.52726156  0.62471108    -0.13000
C1085       C  0.22159784  0.53663735  0.59887309     0.05500
C1086       C  0.22290661  0.54626699  0.56385616    -0.09000
C1087       C  0.20623872  0.54597852  0.55444006     0.06300
C1088       C  0.18860367  0.53649329  0.58025936    -0.13400
Br1089     Br  0.19528660  0.56107577  0.67207743    -0.05400
Br1090     Br  0.10840279  0.45426811  0.66495567     0.00200
Br1091     Br  0.24426789  0.53700996  0.61260941     0.00600
Br1092     Br  0.16576470  0.53603409  0.56746556    -0.03800
Br1093     Br  0.15117571  0.53941774  0.72546288     0.00700
Br1094     Br  0.14901088  0.47753139  0.60173069    -0.03100
Br1095     Br  0.20245744  0.51467618  0.67327482    -0.03900
Br1096     Br  0.20704299  0.55773861  0.50535637     0.00000
C1097       C  0.36637698  0.72926606  0.71216459     0.01500
C1098       C  0.34456976  0.71799222  0.70024903     0.04300
C1099       C  0.33185815  0.69786439  0.68100705    -0.11800
C1100       C  0.34170086  0.69039247  0.66799840     0.23600
C1101       C  0.36399741  0.70254221  0.67664841    -0.12300
C1102       C  0.37608172  0.72150479  0.69965212     0.05000
C1103       C  0.32947496  0.67134183  0.64117847     0.27400
C1104       C  0.32172202  0.65134257  0.65417601    -0.13000
C1105       C  0.31213265  0.63414380  0.62749330     0.05500
C1106       C  0.30978691  0.63671713  0.58773001    -0.09000
C1107       C  0.31405291  0.65548499  0.57667424     0.06300
C1108       C  0.32535975  0.67323622  0.60237483    -0.13400
Br1109     Br  0.37841143  0.69410155  0.65407631    -0.05400
Br1110     Br  0.33276347  0.73113934  0.70468399     0.00200
Br1111     Br  0.29938253  0.60620244  0.64658491     0.00600
Br1112     Br  0.33615395  0.70059752  0.58359955    -0.03800
Br1113     Br  0.40678212  0.73829704  0.70916092     0.00700
Br1114     Br  0.30102762  0.68079396  0.67107888    -0.03100
Br1115     Br  0.32405775  0.64753819  0.70860537    -0.03900
Br1116     Br  0.30319626  0.65712272  0.52820595     0.00000
C1117       C  0.33135071  0.64792318  0.92740824     0.01500
C1118       C  0.33181667  0.64553109  0.88679946     0.04300
C1119       C  0.34330753  0.66368239  0.86235543    -0.11800
C1120       C  0.35386132  0.68410204  0.87831217     0.23600
C1121       C  0.35505775  0.68690563  0.91901803    -0.12300
C1122       C  0.34508157  0.66906542  0.94363565     0.05000
C1123       C  0.36265518  0.70226470  0.85204034     0.27400
C1124       C  0.38496222  0.71733541  0.84141745    -0.13000
C1125       C  0.39287649  0.73418181  0.81541313     0.05500
C1126       C  0.37822780  0.73545253  0.79893788    -0.09000
C1127       C  0.35630161  0.72125326  0.81227553     0.06300
C1128       C  0.34844527  0.70446034  0.83809324    -0.13400
Br1129     Br  0.36952546  0.71498996  0.94086213    -0.05400
Br1130     Br  0.31934880  0.61809559  0.86527749     0.00200
Br1131     Br  0.42403609  0.75638049  0.80533477     0.00600
Br1132     Br  0.31831434  0.68479607  0.85579090    -0.03800
Br1133     Br  0.35226271  0.67449543  0.99860764     0.00700
Br1134     Br  0.34470218  0.66082229  0.80695390    -0.03100
Br1135     Br  0.40458661  0.71499185  0.86324884    -0.03900
Br1136     Br  0.33773353  0.72645113  0.80040562     0.00000
C1137       C  0.44550238  0.48735696  0.92958660     0.01500
C1138       C  0.43634020  0.47582099  0.89385480     0.04300
C1139       C  0.43148643  0.48348193  0.86402436    -0.11800
C1140       C  0.43513726  0.50219296  0.87019948     0.23600
C1141       C  0.44631086  0.51483624  0.90401779    -0.12300
C1142       C  0.45225441  0.50785416  0.93289224     0.05000
C1143       C  0.42402926  0.50641229  0.84468027     0.27400
C1144       C  0.43584179  0.52330342  0.81720246    -0.13000
C1145       C  0.42508939  0.52789034  0.79550241     0.05500
C1146       C  0.40202711  0.51404020  0.79757250    -0.09000
C1147       C  0.39037219  0.49736598  0.82591902     0.06300
C1148       C  0.40143805  0.49395955  0.84989547    -0.13400
Br1149     Br  0.45130976  0.54045933  0.91285478    -0.05400
Br1150     Br  0.42837772  0.44858908  0.88634805     0.00200
Br1151     Br  0.44251572  0.55519212  0.76903924     0.00600
Br1152     Br  0.38584426  0.47275987  0.89141036    -0.03800
Br1153     Br  0.46956352  0.52643529  0.47720578     0.00700
Br1154     Br  0.41776800  0.46732223  0.81595457    -0.03100
Br1155     Br  0.46681373  0.54041200  0.81003093    -0.03900
Br1156     Br  0.35943677  0.47959865  0.83428314     0.00000
C1157       C  0.42586132  0.47033930  0.56728418     0.01500
C1158       C  0.43909492  0.48110666  0.60088835     0.04300
C1159       C  0.43187479  0.48586307  0.63186746    -0.11800
C1160       C  0.41161646  0.48019405  0.62901260     0.23600
C1161       C  0.39786354  0.46837543  0.59635707    -0.12300
C1162       C  0.40488200  0.46324816  0.56575734     0.05000
C1163       C  0.40620482  0.48916729  0.65751623     0.27400
C1164       C  0.39016294  0.47599552  0.68643057    -0.13000
C1165       C  0.38370301  0.48430035  0.71052249     0.05500
C1166       C  0.39497722  0.50647923  0.70900248    -0.09000
C1167       C  0.41147363  0.51972962  0.68036644     0.06300
C1168       C  0.41649061  0.51090784  0.65400651    -0.13400
Br1169     Br  0.37007811  0.46052507  0.59224927    -0.05400
Br1170     Br  0.46790842  0.49108000  0.60313139     0.00200
Br1171     Br  0.35721459  0.46442341  0.74050811     0.00600
Br1172     Br  0.43662918  0.52827589  0.61136097    -0.03800
Br1173     Br  0.38579452  0.44662400  0.52146157     0.00700
Br1174     Br  0.45028949  0.50145028  0.67726442    -0.03100
Br1175     Br  0.37657657  0.44638355  0.69204436    -0.03900
Br1176     Br  0.42679394  0.54980418  0.67507559     0.00000
C1177       C  0.44360527  0.89181596  0.92495591     0.01500
C1178       C  0.45471681  0.88469871  0.92798710     0.04300
C1179       C  0.45204557  0.87133047  0.89881204    -0.11800
C1180       C  0.43982391  0.86656118  0.86491281     0.23600
C1181       C  0.43214559  0.87686763  0.85871959    -0.12300
C1182       C  0.43358592  0.88914756  0.88896245     0.05000
C1183       C  0.43135881  0.84780186  0.83995830     0.27400
C1184       C  0.44377836  0.84992383  0.80894863    -0.13000
C1185       C  0.43533823  0.83163811  0.78628289     0.05500
C1186       C  0.41390300  0.81134088  0.79323505    -0.09000
C1187       C  0.40176768  0.80933966  0.82515130     0.06300
C1188       C  0.41050317  0.82744211  0.84826530    -0.13400
Br1189     Br  0.41779144  0.87223166  0.80991534    -0.05400
Br1190     Br  0.47355942  0.89319934  0.47228579     0.00200
Br1191     Br  0.45422006  0.83415828  0.74904987     0.00600
Br1192     Br  0.39387569  0.82437563  0.89200783    -0.03800
Br1193     Br  0.41993489  0.90026098  0.88159885     0.00700
Br1194     Br  0.46311520  0.85772185  0.90712822    -0.03100
Br1195     Br  0.47238952  0.87791270  0.79801400    -0.03900
Br1196     Br  0.37295234  0.78184208  0.83820549     0.00000
C1197       C  0.40340141  0.80605648  0.70501366     0.01500
C1198       C  0.41726442  0.81338593  0.67222771     0.04300
C1199       C  0.42046488  0.82804101  0.64595825    -0.11800
C1200       C  0.41006693  0.83563511  0.65237485     0.23600
C1201       C  0.39625681  0.82842410  0.68478536    -0.12300
C1202       C  0.39237200  0.81314786  0.71038739     0.05000
C1203       C  0.41291944  0.85035700  0.62356176     0.27400
C1204       C  0.43142285  0.87277122  0.62590523    -0.13000
C1205       C  0.43606579  0.88636222  0.59517447     0.05500
C1206       C  0.42212706  0.87745093  0.56219603    -0.09000
C1207       C  0.40286505  0.85523639  0.56107774     0.06300
C1208       C  0.39823890  0.84168473  0.59180210    -0.13400
Br1209     Br  0.38205105  0.83895286  0.69294588    -0.05400
Br1210     Br  0.43124433  0.80270892  0.66192011     0.00200
Br1211     Br  0.46237515  0.91680369  0.59701484     0.00600
Br1212     Br  0.37229081  0.81109341  0.58977171    -0.03800
Br1213     Br  0.36969155  0.79998239  0.74903584     0.00700
Br1214     Br  0.43846389  0.83719349  0.60010561    -0.03100
Br1215     Br  0.45083137  0.88449286  0.67050000    -0.03900
Br1216     Br  0.38290469  0.84338484  0.51726040     0.00000
loop_ 
_geom_bond_atom_site_label_1 
_geom_bond_atom_site_label_2 
_geom_bond_distance 
_geom_bond_site_symmetry_2 
_ccdc_geom_bond_type 
C1            N2   1.357       .  A
C1            N6   1.360       .  A
C1          C569   1.489       .  S
N2          C611   1.354       .  A
C3            N4   1.354       .  A
C3          N610   1.354   1_554  A
C3          C598   1.468       .  S
N4            C5   1.357   1_554  A
C5          N614   1.364       .  A
C5          C733   1.465       .  S
N6          C613   1.364       .  A
C7            N8   1.363       .  A
C7          N620   1.359       .  A
C7           C71   1.467       .  S
N8            C9   1.361       .  A
C9           N10   1.356       .  A
C9          C529   1.487       .  S
N10         C619   1.354       .  A
C11          N12   1.356       .  A
C11         N618   1.354   1_554  A
C11         C549   1.474       .  S
N12         C615   1.359   1_554  A
C13         C589   1.486       .  S
C13          C14   1.421       .  A
C13          C18   1.406       .  A
C14         C578   1.498       .  S
C14          C15   1.403       .  A
C15          C16   1.403       .  A
C15          H20   1.082       .  S
C16         C518   1.483       .  S
C16          C17   1.419       .  A
C17         C489   1.497       .  S
C17          C18   1.400       .  A
C18          H19   1.082       .  S
O21          C29   1.264       .  A
O21        Cr647   2.001       .  S
O22          C23   1.258       .  A
O22        Cr647   1.988       .  S
C23         C449   1.485       .  S
C23          O24   1.260       .  A
O24        Cr648   1.990       .  S
O25          C26   1.271       .  A
O25        Cr648   2.009       .  S
C26         C418   1.470       .  S
C26          O27   1.265       .  A
O27        Cr649   1.976       .  S
O28          C29   1.252       .  A
O28        Cr649   1.977       .  S
C29         C509   1.479       .  S
O30          C38   1.263       .  A
O30         Cr39   1.991   1_554  S
O31          C32   1.262       .  A
O31         Cr39   1.976   1_554  S
C32         C478   1.476       .  S
C32          O33   1.265       .  A
O33         Cr40   1.998   1_554  S
O34          C35   1.255       .  A
O34         Cr40   1.988   1_554  S
C35         C438   1.478       .  S
C35          O36   1.251       .  A
O36         Cr41   1.978       .  S
O37          C38   1.270       .  A
O37         Cr41   2.000       .  S
C38         C498   1.494       .  S
Cr39        O629   2.001       .  S
Cr39        O630   1.988       .  S
Cr39         O42   1.775       .  S
Cr40        O632   1.990       .  S
Cr40        O633   2.009       .  S
Cr40         O42   1.784       .  S
Cr41        O635   1.976   1_554  S
Cr41        O636   1.977   1_554  S
Cr41         O42   1.785   1_554  S
C43         C538   1.495       .  S
C43          C44   1.423       .  A
C43          C48   1.403       .  A
C44         C558   1.493       .  S
C44          C45   1.406       .  A
C45          C46   1.405       .  A
C45          H50   1.086       .  S
C46         C429   1.496       .  S
C46          C47   1.422       .  A
C47         C409   1.491       .  S
C47          C48   1.404       .  A
C48          H49   1.091       .  S
C51         C458   1.500       .  S
C51          C52   1.423       .  A
C51          C56   1.408       .  A
C52         C469   1.492       .  S
C52          C53   1.400       .  A
C53          C54   1.400       .  A
C53          H58   1.084       .  S
C54         C398   1.495       .  S
C54          C55   1.421       .  A
C55         C369   1.496       .  S
C55          C56   1.408       .  A
C56          H57   1.083       .  S
C59          N60   1.361   1_556  A
C59         N672   1.363       .  A
C59          C65   1.467       .  S
N60          C61   1.357       .  A
C61          N62   1.352   1_554  A
C61         C389   1.476       .  S
N62         C671   1.352       .  A
C63          N64   1.359       .  A
C63         N670   1.352       .  A
C63         C378   1.477       .  S
N64         C667   1.363       .  A
C65          N66   1.361   1_556  A
C65         N678   1.361       .  A
N66          C67   1.356       .  A
C67          N68   1.351   1_554  A
C67         C338   1.471       .  S
N68         C677   1.355       .  A
C69          N70   1.359       .  A
C69         N676   1.355       .  A
C69         C358   1.486       .  S
N70         C673   1.361       .  A
C71          N72   1.361       .  A
C71         N684   1.362       .  A
N72          C73   1.358       .  A
C73          N74   1.354       .  A
C73         C309   1.477       .  S
N74         C683   1.356       .  A
C75          N76   1.359       .  A
C75         N682   1.356       .  A
C75         C289   1.485       .  S
N76         C679   1.362   1_554  A
C77         C349   1.484       .  S
C77          C78   1.422       .  A
C77          C82   1.403       .  A
C78         C329   1.501       .  S
C78          C79   1.405       .  A
C79          C80   1.404       .  A
C79          H84   1.082       .  S
C80         C278   1.488       .  S
C80          C81   1.418       .  A
C81         C258   1.494       .  S
C81          C82   1.398       .  A
C82          H83   1.083       .  S
C85         C318   1.498       .  S
C85          C86   1.425       .  A
C85          C90   1.406       .  A
C86         C298   1.499       .  S
C86          C87   1.412       .  A
C87          C88   1.408       .  A
C87          H92   1.085       .  S
C88         C209   1.498       .  S
C88          C89   1.419       .  A
C89         C238   1.494       .  S
C89          C90   1.400       .  A
C90          H91   1.085       .  S
O93         C101   1.263       .  A
O93        Cr719   1.989       .  S
O94          C95   1.265       .  A
O94        Cr719   2.001       .  S
C95         C249   1.480       .  S
C95          O96   1.262       .  A
O96        Cr720   1.992       .  S
O97          C98   1.259       .  A
O97        Cr720   1.987       .  S
C98         C229   1.496       .  S
C98          O99   1.262       .  A
O99        Cr721   1.988       .  S
O100        C101   1.262       .  A
O100       Cr721   1.999       .  S
C101        C169   1.501       .  S
O102        C110   1.261       .  A
O102       Cr111   1.986       .  S
O103        C104   1.259       .  A
O103       Cr111   1.981       .  S
C104        C269   1.484       .  S
C104        O105   1.261       .  A
O105       Cr112   2.005       .  S
O106        C107   1.267       .  A
O106       Cr112   2.001       .  S
C107        C218   1.497       .  S
C107        O108   1.263       .  A
O108       Cr113   1.997   1_554  S
O109        C110   1.261       .  A
O109       Cr113   1.987   1_554  S
C110        C189   1.487       .  S
Cr111       O701   1.989   1_554  S
Cr111       O702   2.001   1_554  S
Cr111       O114   1.779       .  S
Cr112       O704   1.992   1_554  S
Cr112       O705   1.987   1_554  S
Cr112       O114   1.783       .  S
Cr113       O707   1.988       .  S
Cr113       O708   1.999       .  S
Cr113       O114   1.783   1_556  S
C115        C178   1.494       .  S
C115        C116   1.419       .  A
C115        C120   1.399       .  A
C116        C198   1.487       .  S
C116        C117   1.406       .  A
C117        C118   1.405       .  A
C117        H122   1.081       .  S
C118        C158   1.496       .  S
C118        C119   1.420       .  A
C119        C138   1.486       .  S
C119        C120   1.402       .  A
C120        H121   1.082       .  S
C123        N124   1.361       .  A
C123        N128   1.359   1_554  A
C123        C149   1.495       .  S
N124        C733   1.364   1_554  A
C125        N126   1.355       .  A
C125        N732   1.364       .  A
C125        C613   1.465       .  S
N126        C127   1.352       .  A
C127        N736   1.356       .  A
C127        C129   1.472       .  S
N128        C735   1.356       .  A
C129        C130   1.409   1_565  A
C129        C134   1.412       .  A
C130        C131   1.403       .  A
C130       Br142   1.931       .  S
C131        C132   1.408       .  A
C131       Br146   1.931       .  S
C132        C135   1.477       .  S
C132        C133   1.407   1_545  A
C133        C134   1.406       .  A
C133       Br141   1.930       .  S
C134       Br145   1.929       .  S
C135        C136   1.407       .  A
C135        C140   1.405       .  A
C136        C137   1.403       .  A
C136       Br147   1.933       .  S
C137        C138   1.416       .  A
C137       Br143   1.935       .  S
C138        C139   1.413       .  A
C139        C140   1.405       .  A
C139       Br148   1.924       .  S
C140       Br144   1.929       .  S
C149        C150   1.420       .  A
C149        C154   1.415       .  A
C150        C151   1.413       .  A
C150       Br162   1.928       .  S
C151        C152   1.407       .  A
C151       Br166   1.929       .  S
C152        C155   1.488   1_565  S
C152        C153   1.407       .  A
C153        C154   1.406       .  A
C153       Br161   1.930   1_565  S
C154       Br165   1.932       .  S
C155        C156   1.406       .  A
C155        C160   1.410       .  A
C156        C157   1.409       .  A
C156       Br167   1.928   1_545  S
C157        C158   1.414       .  A
C157       Br163   1.923       .  S
C158        C159   1.416       .  A
C159        C160   1.408       .  A
C159       Br168   1.935       .  S
C160       Br164   1.933       .  S
C169        C170   1.425       .  A
C169        C174   1.421       .  A
C170        C171   1.409       .  A
C170       Br182   1.937       .  S
C171        C172   1.408       .  A
C171       Br186   1.937       .  S
C172        C175   1.489       .  S
C172        C173   1.406       .  A
C173        C174   1.410       .  A
C173       Br181   1.933       .  S
C174       Br185   1.926       .  S
C175        C176   1.411       .  A
C175        C180   1.408       .  A
C176        C177   1.409       .  A
C176       Br187   1.932       .  S
C177        C178   1.418       .  A
C177       Br183   1.935       .  S
C178        C179   1.411       .  A
C179        C180   1.404       .  A
C179       Br188   1.923       .  S
C180       Br184   1.930       .  S
C189        C190   1.418       .  A
C189        C194   1.420       .  A
C190        C191   1.411       .  A
C190       Br202   1.927       .  S
C191        C192   1.406       .  A
C191       Br206   1.931       .  S
C192        C195   1.479       .  S
C192        C193   1.404       .  A
C193        C194   1.402       .  A
C193       Br201   1.936       .  S
C194       Br205   1.935       .  S
C195        C196   1.407       .  A
C195        C200   1.407       .  A
C196        C197   1.404       .  A
C196       Br207   1.933       .  S
C197        C198   1.411       .  A
C197       Br203   1.926       .  S
C198        C199   1.415       .  A
C199        C200   1.407       .  A
C199       Br208   1.933       .  S
C200       Br204   1.930       .  S
C209        C210   1.416       .  A
C209        C214   1.414       .  A
C210        C211   1.411       .  A
C210       Br222   1.929       .  S
C211        C212   1.410       .  A
C211       Br226   1.931       .  S
C212        C215   1.491       .  S
C212        C213   1.407       .  A
C213        C214   1.408       .  A
C213       Br221   1.930       .  S
C214       Br225   1.925       .  S
C215        C216   1.408       .  A
C215        C220   1.407       .  A
C216        C217   1.409       .  A
C216       Br227   1.934       .  S
C217        C218   1.422       .  A
C217       Br223   1.935       .  S
C218        C219   1.416       .  A
C219        C220   1.412       .  A
C219       Br228   1.924       .  S
C220       Br224   1.930       .  S
C229        C230   1.426       .  A
C229        C234   1.421       .  A
C230        C231   1.406       .  A
C230       Br242   1.939       .  S
C231        C232   1.405       .  A
C231       Br246   1.937       .  S
C232        C235   1.486       .  S
C232        C233   1.407       .  A
C233        C234   1.411       .  A
C233       Br241   1.931       .  S
C234       Br245   1.934       .  S
C235        C236   1.409       .  A
C235        C240   1.407       .  A
C236        C237   1.410       .  A
C236       Br247   1.931       .  S
C237        C238   1.416       .  A
C237       Br243   1.931       .  S
C238        C239   1.411       .  A
C239        C240   1.404       .  A
C239       Br248   1.924       .  S
C240       Br244   1.930       .  S
C249        C250   1.410       .  A
C249        C254   1.411       .  A
C250        C251   1.404       .  A
C250       Br262   1.927       .  S
C251        C252   1.408       .  A
C251       Br266   1.932       .  S
C252        C255   1.486       .  S
C252        C253   1.411       .  A
C253        C254   1.412       .  A
C253       Br261   1.928       .  S
C254       Br265   1.927       .  S
C255        C256   1.407       .  A
C255        C260   1.408       .  A
C256        C257   1.408       .  A
C256       Br267   1.930       .  S
C257        C258   1.413       .  A
C257       Br263   1.925       .  S
C258        C259   1.418       .  A
C259        C260   1.407       .  A
C259       Br268   1.936       .  S
C260       Br264   1.931       .  S
C269        C270   1.415       .  A
C269        C274   1.415       .  A
C270        C271   1.406       .  A
C270       Br282   1.934       .  S
C271        C272   1.410       .  A
C271       Br286   1.935       .  S
C272        C275   1.484       .  S
C272        C273   1.406       .  A
C273        C274   1.408       .  A
C273       Br281   1.931       .  S
C274       Br285   1.924       .  S
C275        C276   1.405       .  A
C275        C280   1.411       .  A
C276        C277   1.399       .  A
C276       Br287   1.933       .  S
C277        C278   1.411       .  A
C277       Br283   1.923       .  S
C278        C279   1.415       .  A
C279        C280   1.410       .  A
C279       Br288   1.932       .  S
C280       Br284   1.930       .  S
C289        C290   1.414       .  A
C289        C294   1.414       .  A
C290        C291   1.413       .  A
C290       Br302   1.929       .  S
C291        C292   1.410       .  A
C291       Br306   1.928       .  S
C292        C295   1.489       .  S
C292        C293   1.407       .  A
C293        C294   1.404       .  A
C293       Br301   1.931       .  S
C294       Br305   1.935       .  S
C295        C296   1.407       .  A
C295        C300   1.408       .  A
C296        C297   1.412       .  A
C296       Br307   1.930       .  S
C297        C298   1.416       .  A
C297       Br303   1.923       .  S
C298        C299   1.418       .  A
C299        C300   1.408       .  A
C299       Br308   1.936       .  S
C300       Br304   1.932       .  S
C309        C310   1.411       .  A
C309        C314   1.411       .  A
C310        C311   1.408       .  A
C310       Br322   1.931       .  S
C311        C312   1.411       .  A
C311       Br326   1.931       .  S
C312        C315   1.487       .  S
C312        C313   1.409       .  A
C313        C314   1.407       .  A
C313       Br321   1.931       .  S
C314       Br325   1.930       .  S
C315        C316   1.409       .  A
C315        C320   1.406       .  A
C316        C317   1.405       .  A
C316       Br327   1.934       .  S
C317        C318   1.419       .  A
C317       Br323   1.937       .  S
C318        C319   1.416       .  A
C319        C320   1.409       .  A
C319       Br328   1.921       .  S
C320       Br324   1.930       .  S
C329        C330   1.423       .  A
C329        C334   1.416       .  A
C330        C331   1.408       .  A
C330       Br342   1.938       .  S
C331        C332   1.407       .  A
C331       Br346   1.933       .  S
C332        C335   1.484       .  S
C332        C333   1.404       .  A
C333        C334   1.407       .  A
C333       Br341   1.932       .  S
C334       Br345   1.922       .  S
C335        C336   1.409       .  A
C335        C340   1.411       .  A
C336        C337   1.409       .  A
C336       Br347   1.928       .  S
C337        C338   1.409       .  A
C337       Br343   1.928       .  S
C338        C339   1.409       .  A
C339        C340   1.404       .  A
C339       Br348   1.932       .  S
C340       Br344   1.932       .  S
C349        C350   1.413       .  A
C349        C354   1.416       .  A
C350        C351   1.404       .  A
C350       Br362   1.925       .  S
C351        C352   1.405       .  A
C351       Br366   1.930       .  S
C352        C355   1.477       .  S
C352        C353   1.409       .  A
C353        C354   1.403       .  A
C353       Br361   1.934       .  S
C354       Br365   1.937       .  S
C355        C356   1.405       .  A
C355        C360   1.406       .  A
C356        C357   1.402       .  A
C356       Br367   1.932       .  S
C357        C358   1.417       .  A
C357       Br363   1.935       .  S
C358        C359   1.419       .  A
C359        C360   1.408       .  A
C359       Br368   1.931       .  S
C360       Br364   1.932       .  S
C369        C370   1.418       .  A
C369        C374   1.413       .  A
C370        C371   1.408       .  A
C370       Br382   1.936       .  S
C371        C372   1.411       .  A
C371       Br386   1.933       .  S
C372        C375   1.486       .  S
C372        C373   1.406       .  A
C373        C374   1.405       .  A
C373       Br381   1.931       .  S
C374       Br385   1.923       .  S
C375        C376   1.411   1_455  A
C375        C380   1.410       .  A
C376        C377   1.409       .  A
C376       Br387   1.930       .  S
C377        C378   1.410       .  A
C377       Br383   1.928       .  S
C378        C379   1.411       .  A
C379        C380   1.404   1_655  A
C379       Br388   1.933       .  S
C380       Br384   1.932       .  S
C389        C390   1.413       .  A
C389        C394   1.412       .  A
C390        C391   1.409       .  A
C390       Br402   1.930       .  S
C391        C392   1.409   1_655  A
C391       Br406   1.929       .  S
C392        C395   1.481       .  S
C392        C393   1.408       .  A
C393        C394   1.402   1_455  A
C393       Br401   1.934       .  S
C394       Br405   1.934       .  S
C395        C396   1.407       .  A
C395        C400   1.406       .  A
C396        C397   1.406       .  A
C396       Br407   1.934       .  S
C397        C398   1.420       .  A
C397       Br403   1.937       .  S
C398        C399   1.415       .  A
C399        C400   1.406       .  A
C399       Br408   1.924       .  S
C400       Br404   1.931   1_455  S
C409        C410   1.414       .  A
C409        C414   1.417       .  A
C410        C411   1.408       .  A
C410       Br422   1.923       .  S
C411        C412   1.405       .  A
C411       Br426   1.929       .  S
C412        C415   1.478       .  S
C412        C413   1.404       .  A
C413        C414   1.403       .  A
C413       Br421   1.935       .  S
C414       Br425   1.924       .  S
C415        C416   1.409       .  A
C415        C420   1.407       .  A
C416        C417   1.406       .  A
C416       Br427   1.929       .  S
C417        C418   1.409       .  A
C417       Br423   1.930       .  S
C418        C419   1.410       .  A
C419        C420   1.404       .  A
C419       Br428   1.926       .  S
C420       Br424   1.932       .  S
C429        C430   1.417       .  A
C429        C434   1.413       .  A
C430        C431   1.405       .  A
C430       Br442   1.923       .  S
C431        C432   1.408       .  A
C431       Br446   1.936       .  S
C432        C435   1.482       .  S
C432        C433   1.405       .  A
C433        C434   1.406       .  A
C433       Br441   1.929       .  S
C434       Br445   1.918       .  S
C435        C436   1.407       .  A
C435        C440   1.410       .  A
C436        C437   1.404       .  A
C436       Br447   1.934       .  S
C437        C438   1.415       .  A
C437       Br443   1.929       .  S
C438        C439   1.413       .  A
C439        C440   1.408       .  A
C439       Br448   1.932       .  S
C440       Br444   1.931       .  S
C449        C450   1.413       .  A
C449        C454   1.412       .  A
C450        C451   1.410       .  A
C450       Br462   1.930       .  S
C451        C452   1.410       .  A
C451       Br466   1.930       .  S
C452        C455   1.490       .  S
C452        C453   1.408       .  A
C453        C454   1.409       .  A
C453       Br461   1.931       .  S
C454       Br465   1.921       .  S
C455        C456   1.406       .  A
C455        C460   1.409       .  A
C456        C457   1.409       .  A
C456       Br467   1.930       .  S
C457        C458   1.415       .  A
C457       Br463   1.923       .  S
C458        C459   1.419       .  A
C459        C460   1.410       .  A
C459       Br468   1.935       .  S
C460       Br464   1.933       .  S
C469        C470   1.419       .  A
C469        C474   1.414       .  A
C470        C471   1.406       .  A
C470       Br482   1.936       .  S
C471        C472   1.406       .  A
C471       Br486   1.931       .  S
C472        C475   1.481       .  S
C472        C473   1.406       .  A
C473        C474   1.406       .  A
C473       Br481   1.931       .  S
C474       Br485   1.924       .  S
C475        C476   1.407       .  A
C475        C480   1.409       .  A
C476        C477   1.406       .  A
C476       Br487   1.932       .  S
C477        C478   1.412       .  A
C477       Br483   1.928       .  S
C478        C479   1.411       .  A
C479        C480   1.407       .  A
C479       Br488   1.932       .  S
C480       Br484   1.930       .  S
C489        C490   1.417       .  A
C489        C494   1.414       .  A
C490        C491   1.408       .  A
C490       Br502   1.932       .  S
C491        C492   1.409       .  A
C491       Br506   1.931       .  S
C492        C495   1.491       .  S
C492        C493   1.409       .  A
C493        C494   1.411       .  A
C493       Br501   1.932       .  S
C494       Br505   1.924       .  S
C495        C496   1.410       .  A
C495        C500   1.408       .  A
C496        C497   1.412       .  A
C496       Br507   1.923       .  S
C497        C498   1.413       .  A
C497       Br503   1.928       .  S
C498        C499   1.422       .  A
C499        C500   1.405       .  A
C499       Br508   1.939       .  S
C500       Br504   1.934       .  S
C509        C510   1.408       .  A
C509        C514   1.419       .  A
C510        C511   1.404       .  A
C510       Br522   1.924       .  S
C511        C512   1.405       .  A
C511       Br526   1.924       .  S
C512        C515   1.474       .  S
C512        C513   1.404       .  A
C513        C514   1.403       .  A
C513       Br521   1.932       .  S
C514       Br525   1.930       .  S
C515        C516   1.406       .  A
C515        C520   1.403       .  A
C516        C517   1.407       .  A
C516       Br527   1.929       .  S
C517        C518   1.415       .  A
C517       Br523   1.931       .  S
C518        C519   1.412       .  A
C519        C520   1.401       .  A
C519       Br528   1.922       .  S
C520       Br524   1.934       .  S
C529        C530   1.416       .  A
C529        C534   1.415       .  A
C530        C531   1.410       .  A
C530       Br542   1.930       .  S
C531        C532   1.409       .  A
C531       Br546   1.931       .  S
C532        C535   1.484       .  S
C532        C533   1.407       .  A
C533        C534   1.405       .  A
C533       Br541   1.931       .  S
C534      Br1153   1.933       .  S
C535        C536   1.407       .  A
C535        C540   1.407       .  A
C536        C537   1.409       .  A
C536       Br547   1.928       .  S
C537        C538   1.413       .  A
C537       Br543   1.920       .  S
C538        C539   1.417       .  A
C539        C540   1.405       .  A
C539       Br548   1.923       .  S
C540       Br544   1.936       .  S
Br545      C1142   1.933       .  S
C549        C550   1.410       .  A
C549        C554   1.411       .  A
C550        C551   1.407       .  A
C550       Br562   1.929       .  S
C551        C552   1.410       .  A
C551       Br566   1.930       .  S
C552        C555   1.483       .  S
C552        C553   1.410       .  A
C553        C554   1.406       .  A
C553       Br561   1.931       .  S
C554       Br565   1.932       .  S
C555        C556   1.407       .  A
C555        C560   1.406       .  A
C556        C557   1.408       .  A
C556       Br567   1.929       .  S
C557        C558   1.413       .  A
C557       Br563   1.921       .  S
C558        C559   1.417       .  A
C559        C560   1.405       .  A
C559       Br568   1.923       .  S
C560       Br564   1.936       .  S
C569        C570   1.414       .  A
C569        C574   1.416       .  A
C570        C571   1.406       .  A
C570      Br1190   1.932       .  S
C571        C572   1.407       .  A
C571       Br586   1.929       .  S
C572        C575   1.486       .  S
C572        C573   1.408       .  A
C573        C574   1.411       .  A
C573       Br581   1.931       .  S
C574       Br585   1.927       .  S
C575        C576   1.407       .  A
C575        C580   1.406       .  A
C576        C577   1.413       .  A
C576       Br587   1.928       .  S
C577        C578   1.416       .  A
C577       Br583   1.923       .  S
C578        C579   1.420       .  A
C579        C580   1.404       .  A
C579       Br588   1.935       .  S
C580       Br584   1.936       .  S
Br582      C1178   1.932       .  S
C589        C590   1.416       .  A
C589        C594   1.414       .  A
C590        C591   1.404       .  A
C590       Br602   1.936       .  S
C591        C592   1.407       .  A
C591       Br606   1.933       .  S
C592        C595   1.477       .  S
C592        C593   1.405       .  A
C593        C594   1.406       .  A
C593       Br601   1.930       .  S
C594       Br605   1.923       .  S
C595        C596   1.407       .  A
C595        C600   1.408       .  A
C596        C597   1.405       .  A
C596       Br607   1.930       .  S
C597        C598   1.410       .  A
C597       Br603   1.929       .  S
C598        C599   1.409       .  A
C599        C600   1.404       .  A
C599       Br608   1.931       .  S
C600       Br604   1.930       .  S
C609        N610   1.357       .  A
C609        N614   1.360       .  A
C609       C1177   1.489       .  S
C611        N612   1.354       .  A
C611       C1206   1.468       .  S
N612        C613   1.357       .  A
C615        N616   1.363       .  A
C615        C679   1.467       .  S
N616        C617   1.361       .  A
C617        N618   1.356       .  A
C617       C1137   1.487       .  S
C619        N620   1.356       .  A
C619       C1157   1.474       .  S
C621       C1197   1.486       .  S
C621        C622   1.421       .  A
C621        C626   1.406       .  A
C622       C1186   1.498       .  S
C622        C623   1.403       .  A
C623        C624   1.403       .  A
C623        H628   1.082       .  S
C624       C1126   1.483       .  S
C624        C625   1.419       .  A
C625       C1097   1.497       .  S
C625        C626   1.400       .  A
C626        H627   1.082       .  S
O629        C637   1.264       .  A
O630        C631   1.258       .  A
C631       C1057   1.485       .  S
C631        O632   1.260       .  A
O633        C634   1.271       .  A
C634       C1026   1.470       .  S
C634        O635   1.265       .  A
O636        C637   1.252       .  A
C637       C1117   1.479       .  S
O638        C646   1.263       .  A
O638       Cr647   1.991       .  S
O639        C640   1.262       .  A
O639       Cr647   1.976       .  S
C640       C1086   1.476       .  S
C640        O641   1.265       .  A
O641       Cr648   1.998       .  S
O642        C643   1.255       .  A
O642       Cr648   1.988       .  S
C643       C1046   1.478       .  S
C643        O644   1.251       .  A
O644       Cr649   1.978       .  S
O645        C646   1.270       .  A
O645       Cr649   2.000       .  S
C646       C1106   1.494       .  S
Cr647       O650   1.775       .  S
Cr648       O650   1.784       .  S
Cr649       O650   1.785       .  S
C651       C1146   1.495       .  S
C651        C652   1.423       .  A
C651        C656   1.403       .  A
C652       C1166   1.493       .  S
C652        C653   1.406       .  A
C653        C654   1.405       .  A
C653        H658   1.086       .  S
C654       C1037   1.496       .  S
C654        C655   1.422       .  A
C655       C1017   1.491       .  S
C655        C656   1.404       .  A
C656        H657   1.091       .  S
C659       C1066   1.500       .  S
C659        C660   1.423       .  A
C659        C664   1.408       .  A
C660       C1077   1.492       .  S
C660        C661   1.400       .  A
C661        C662   1.400       .  A
C661        H666   1.084       .  S
C662       C1006   1.495       .  S
C662        C663   1.421       .  A
C663        C977   1.496       .  S
C663        C664   1.408       .  A
C664        H665   1.083       .  S
C667        N668   1.361       .  A
C667        C673   1.467       .  S
N668        C669   1.357       .  A
C669        N670   1.352       .  A
C669        C997   1.476       .  S
C671        N672   1.359       .  A
C671        C986   1.477       .  S
C673        N674   1.361       .  A
N674        C675   1.356       .  A
C675        N676   1.351       .  A
C675        C946   1.471       .  S
C677        N678   1.359       .  A
C677        C966   1.486       .  S
C679        N680   1.361       .  A
N680        C681   1.358       .  A
C681        N682   1.354   1_556  A
C681        C917   1.477       .  S
C683        N684   1.359       .  A
C683        C897   1.485       .  S
C685        C957   1.484       .  S
C685        C686   1.422       .  A
C685        C690   1.403       .  A
C686        C937   1.501       .  S
C686        C687   1.405       .  A
C687        C688   1.404       .  A
C687        H692   1.082       .  S
C688        C886   1.488       .  S
C688        C689   1.418       .  A
C689        C866   1.494       .  S
C689        C690   1.398       .  A
C690        H691   1.083       .  S
C693        C926   1.498       .  S
C693        C694   1.425       .  A
C693        C698   1.406       .  A
C694        C906   1.499       .  S
C694        C695   1.412       .  A
C695        C696   1.408       .  A
C695        H700   1.085       .  S
C696        C817   1.498       .  S
C696        C697   1.419       .  A
C697        C846   1.494       .  S
C697        C698   1.400       .  A
C698        H699   1.085       .  S
O701        C709   1.263       .  A
O702        C703   1.265       .  A
C703        C857   1.480       .  S
C703        O704   1.262       .  A
O705        C706   1.259       .  A
C706        C837   1.496       .  S
C706        O707   1.262       .  A
O708        C709   1.262       .  A
C709        C777   1.501       .  S
O710        C718   1.261       .  A
O710       Cr719   1.986       .  S
O711        C712   1.259       .  A
O711       Cr719   1.981       .  S
C712        C877   1.484       .  S
C712        O713   1.261       .  A
O713       Cr720   2.005       .  S
O714        C715   1.267       .  A
O714       Cr720   2.001       .  S
C715        C826   1.497       .  S
C715        O716   1.263       .  A
O716       Cr721   1.997       .  S
O717        C718   1.261       .  A
O717       Cr721   1.987       .  S
C718        C797   1.487       .  S
Cr719       O722   1.779       .  S
Cr720       O722   1.783       .  S
Cr721       O722   1.783       .  S
C723        C786   1.494       .  S
C723        C724   1.419       .  A
C723        C728   1.399       .  A
C724        C806   1.487       .  S
C724        C725   1.406       .  A
C725        C726   1.405       .  A
C725        H730   1.081       .  S
C726        C766   1.496       .  S
C726        C727   1.420       .  A
C727        C746   1.486       .  S
C727        C728   1.402       .  A
C728        H729   1.082       .  S
C731        N732   1.361       .  A
C731        N736   1.359       .  A
C731        C757   1.495       .  S
C733        N734   1.355       .  A
N734        C735   1.352       .  A
C735        C737   1.472       .  S
C737        C738   1.409   1_565  A
C737        C742   1.412       .  A
C738        C739   1.403       .  A
C738       Br750   1.931       .  S
C739        C740   1.408       .  A
C739       Br754   1.931       .  S
C740        C743   1.477       .  S
C740        C741   1.407   1_545  A
C741        C742   1.406       .  A
C741       Br749   1.930       .  S
C742       Br753   1.929       .  S
C743        C744   1.407       .  A
C743        C748   1.405       .  A
C744        C745   1.403       .  A
C744       Br755   1.933       .  S
C745        C746   1.416       .  A
C745       Br751   1.935       .  S
C746        C747   1.413       .  A
C747        C748   1.405       .  A
C747       Br756   1.924       .  S
C748       Br752   1.929       .  S
C757        C758   1.420       .  A
C757        C762   1.415       .  A
C758        C759   1.413       .  A
C758       Br770   1.928       .  S
C759        C760   1.407       .  A
C759       Br774   1.929       .  S
C760        C763   1.488   1_565  S
C760        C761   1.407       .  A
C761        C762   1.406       .  A
C761       Br769   1.930   1_565  S
C762       Br773   1.932       .  S
C763        C764   1.406       .  A
C763        C768   1.410       .  A
C764        C765   1.409       .  A
C764       Br775   1.928   1_545  S
C765        C766   1.414       .  A
C765       Br771   1.923       .  S
C766        C767   1.416       .  A
C767        C768   1.408       .  A
C767       Br776   1.935       .  S
C768       Br772   1.933       .  S
C777        C778   1.425       .  A
C777        C782   1.421       .  A
C778        C779   1.409       .  A
C778       Br790   1.937       .  S
C779        C780   1.408       .  A
C779       Br794   1.937       .  S
C780        C783   1.489       .  S
C780        C781   1.406       .  A
C781        C782   1.410       .  A
C781       Br789   1.933       .  S
C782       Br793   1.926       .  S
C783        C784   1.411       .  A
C783        C788   1.408       .  A
C784        C785   1.409       .  A
C784       Br795   1.932       .  S
C785        C786   1.418       .  A
C785       Br791   1.935       .  S
C786        C787   1.411       .  A
C787        C788   1.404       .  A
C787       Br796   1.923       .  S
C788       Br792   1.930       .  S
C797        C798   1.418       .  A
C797        C802   1.420       .  A
C798        C799   1.411       .  A
C798       Br810   1.927       .  S
C799        C800   1.406       .  A
C799       Br814   1.931       .  S
C800        C803   1.479       .  S
C800        C801   1.404       .  A
C801        C802   1.402       .  A
C801       Br809   1.936       .  S
C802       Br813   1.935       .  S
C803        C804   1.407       .  A
C803        C808   1.407       .  A
C804        C805   1.404       .  A
C804       Br815   1.933       .  S
C805        C806   1.411       .  A
C805       Br811   1.926       .  S
C806        C807   1.415       .  A
C807        C808   1.407       .  A
C807       Br816   1.933       .  S
C808       Br812   1.930       .  S
C817        C818   1.416       .  A
C817        C822   1.414       .  A
C818        C819   1.411       .  A
C818       Br830   1.929       .  S
C819        C820   1.410       .  A
C819       Br834   1.931       .  S
C820        C823   1.491       .  S
C820        C821   1.407       .  A
C821        C822   1.408       .  A
C821       Br829   1.930       .  S
C822       Br833   1.925       .  S
C823        C824   1.408       .  A
C823        C828   1.407       .  A
C824        C825   1.409       .  A
C824       Br835   1.934       .  S
C825        C826   1.422       .  A
C825       Br831   1.935       .  S
C826        C827   1.416       .  A
C827        C828   1.412       .  A
C827       Br836   1.924       .  S
C828       Br832   1.930       .  S
C837        C838   1.426       .  A
C837        C842   1.421       .  A
C838        C839   1.406       .  A
C838       Br850   1.939       .  S
C839        C840   1.405       .  A
C839       Br854   1.937       .  S
C840        C843   1.486       .  S
C840        C841   1.407       .  A
C841        C842   1.411       .  A
C841       Br849   1.931       .  S
C842       Br853   1.934       .  S
C843        C844   1.409       .  A
C843        C848   1.407       .  A
C844        C845   1.410       .  A
C844       Br855   1.931       .  S
C845        C846   1.416       .  A
C845       Br851   1.931       .  S
C846        C847   1.411       .  A
C847        C848   1.404       .  A
C847       Br856   1.924       .  S
C848       Br852   1.930       .  S
C857        C858   1.410       .  A
C857        C862   1.411       .  A
C858        C859   1.404       .  A
C858       Br870   1.927       .  S
C859        C860   1.408       .  A
C859       Br874   1.932       .  S
C860        C863   1.486       .  S
C860        C861   1.411       .  A
C861        C862   1.412       .  A
C861       Br869   1.928       .  S
C862       Br873   1.927       .  S
C863        C864   1.407       .  A
C863        C868   1.408       .  A
C864        C865   1.408       .  A
C864       Br875   1.930       .  S
C865        C866   1.413       .  A
C865       Br871   1.925       .  S
C866        C867   1.418       .  A
C867        C868   1.407       .  A
C867       Br876   1.936       .  S
C868       Br872   1.931       .  S
C877        C878   1.415       .  A
C877        C882   1.415       .  A
C878        C879   1.406       .  A
C878       Br890   1.934       .  S
C879        C880   1.410       .  A
C879       Br894   1.935       .  S
C880        C883   1.484       .  S
C880        C881   1.406       .  A
C881        C882   1.408       .  A
C881       Br889   1.931       .  S
C882       Br893   1.924       .  S
C883        C884   1.405       .  A
C883        C888   1.411       .  A
C884        C885   1.399       .  A
C884       Br895   1.933       .  S
C885        C886   1.411       .  A
C885       Br891   1.923       .  S
C886        C887   1.415       .  A
C887        C888   1.410       .  A
C887       Br896   1.932       .  S
C888       Br892   1.930       .  S
C897        C898   1.414       .  A
C897        C902   1.414       .  A
C898        C899   1.413       .  A
C898       Br910   1.929       .  S
C899        C900   1.410       .  A
C899       Br914   1.928       .  S
C900        C903   1.489       .  S
C900        C901   1.407       .  A
C901        C902   1.404       .  A
C901       Br909   1.931       .  S
C902       Br913   1.935       .  S
C903        C904   1.407       .  A
C903        C908   1.408       .  A
C904        C905   1.412       .  A
C904       Br915   1.930       .  S
C905        C906   1.416       .  A
C905       Br911   1.923       .  S
C906        C907   1.418       .  A
C907        C908   1.408       .  A
C907       Br916   1.936       .  S
C908       Br912   1.932       .  S
C917        C918   1.411       .  A
C917        C922   1.411       .  A
C918        C919   1.408       .  A
C918       Br930   1.931       .  S
C919        C920   1.411       .  A
C919       Br934   1.931       .  S
C920        C923   1.487       .  S
C920        C921   1.409       .  A
C921        C922   1.407       .  A
C921       Br929   1.931       .  S
C922       Br933   1.930       .  S
C923        C924   1.409       .  A
C923        C928   1.406       .  A
C924        C925   1.405       .  A
C924       Br935   1.934       .  S
C925        C926   1.419       .  A
C925       Br931   1.937       .  S
C926        C927   1.416       .  A
C927        C928   1.409       .  A
C927       Br936   1.921       .  S
C928       Br932   1.930       .  S
C937        C938   1.423       .  A
C937        C942   1.416       .  A
C938        C939   1.408       .  A
C938       Br950   1.938       .  S
C939        C940   1.407       .  A
C939       Br954   1.933       .  S
C940        C943   1.484       .  S
C940        C941   1.404       .  A
C941        C942   1.407       .  A
C941       Br949   1.932       .  S
C942       Br953   1.922       .  S
C943        C944   1.409       .  A
C943        C948   1.411       .  A
C944        C945   1.409       .  A
C944       Br955   1.928       .  S
C945        C946   1.409       .  A
C945       Br951   1.928       .  S
C946        C947   1.409       .  A
C947        C948   1.404       .  A
C947       Br956   1.932       .  S
C948       Br952   1.932       .  S
C957        C958   1.413       .  A
C957        C962   1.416       .  A
C958        C959   1.404       .  A
C958       Br970   1.925       .  S
C959        C960   1.405       .  A
C959       Br974   1.930       .  S
C960        C963   1.477       .  S
C960        C961   1.409       .  A
C961        C962   1.403       .  A
C961       Br969   1.934       .  S
C962       Br973   1.937       .  S
C963        C964   1.405       .  A
C963        C968   1.406       .  A
C964        C965   1.402       .  A
C964       Br975   1.932       .  S
C965        C966   1.417       .  A
C965       Br971   1.935       .  S
C966        C967   1.419       .  A
C967        C968   1.408       .  A
C967       Br976   1.931       .  S
C968       Br972   1.932       .  S
C977        C978   1.418       .  A
C977        C982   1.413       .  A
C978        C979   1.408       .  A
C978       Br990   1.936       .  S
C979        C980   1.411       .  A
C979       Br994   1.933       .  S
C980        C983   1.486       .  S
C980        C981   1.406       .  A
C981        C982   1.405       .  A
C981       Br989   1.931       .  S
C982       Br993   1.923       .  S
C983        C984   1.411   1_455  A
C983        C988   1.410       .  A
C984        C985   1.409       .  A
C984       Br995   1.930       .  S
C985        C986   1.410       .  A
C985       Br991   1.928       .  S
C986        C987   1.411       .  A
C987        C988   1.404   1_655  A
C987       Br996   1.933       .  S
C988       Br992   1.932       .  S
C997        C998   1.413       .  A
C997       C1002   1.412       .  A
C998        C999   1.409       .  A
C998      Br1010   1.930       .  S
C999       C1000   1.409   1_655  A
C999      Br1014   1.929       .  S
C1000      C1003   1.481       .  S
C1000      C1001   1.408       .  A
C1001      C1002   1.402   1_455  A
C1001     Br1009   1.934       .  S
C1002     Br1013   1.934       .  S
C1003      C1004   1.407       .  A
C1003      C1008   1.406       .  A
C1004      C1005   1.406       .  A
C1004     Br1015   1.934       .  S
C1005      C1006   1.420       .  A
C1005     Br1011   1.937       .  S
C1006      C1007   1.415       .  A
C1007      C1008   1.406       .  A
C1007     Br1016   1.924       .  S
C1008     Br1012   1.931   1_455  S
C1017      C1018   1.414       .  A
C1017      C1022   1.417       .  A
C1018      C1019   1.408       .  A
C1018     Br1030   1.923       .  S
C1019      C1020   1.405       .  A
C1019     Br1034   1.929       .  S
C1020      C1023   1.478       .  S
C1020      C1021   1.404       .  A
C1021      C1022   1.403       .  A
C1021     Br1029   1.935       .  S
C1022     Br1033   1.924       .  S
C1023      C1024   1.409       .  A
C1023      C1028   1.407       .  A
C1024      C1025   1.406       .  A
C1024     Br1035   1.929       .  S
C1025      C1026   1.409       .  A
C1025     Br1031   1.930       .  S
C1026      C1027   1.410       .  A
C1027      C1028   1.404       .  A
C1027     Br1036   1.926       .  S
C1028     Br1032   1.932       .  S
C1037      C1038   1.417       .  A
C1037      C1042   1.413       .  A
C1038      C1039   1.405       .  A
C1038     Br1050   1.923       .  S
C1039      C1040   1.408       .  A
C1039     Br1054   1.936       .  S
C1040      C1043   1.483       .  S
C1040      C1041   1.405       .  A
C1041      C1042   1.406       .  A
C1041     Br1049   1.929       .  S
C1042     Br1053   1.918       .  S
C1043      C1044   1.407       .  A
C1043      C1048   1.410       .  A
C1044      C1045   1.404       .  A
C1044     Br1055   1.934       .  S
C1045      C1046   1.415       .  A
C1045     Br1051   1.929       .  S
C1046      C1047   1.413       .  A
C1047      C1048   1.408       .  A
C1047     Br1056   1.932       .  S
C1048     Br1052   1.931       .  S
C1057      C1058   1.413       .  A
C1057      C1062   1.412       .  A
C1058      C1059   1.410       .  A
C1058     Br1070   1.930       .  S
C1059      C1060   1.410       .  A
C1059     Br1074   1.930       .  S
C1060      C1063   1.490       .  S
C1060      C1061   1.408       .  A
C1061      C1062   1.409       .  A
C1061     Br1069   1.931       .  S
C1062     Br1073   1.921       .  S
C1063      C1064   1.406       .  A
C1063      C1068   1.409       .  A
C1064      C1065   1.409       .  A
C1064     Br1075   1.930       .  S
C1065      C1066   1.415       .  A
C1065     Br1071   1.923       .  S
C1066      C1067   1.419       .  A
C1067      C1068   1.410       .  A
C1067     Br1076   1.935       .  S
C1068     Br1072   1.933       .  S
C1077      C1078   1.419       .  A
C1077      C1082   1.414       .  A
C1078      C1079   1.406       .  A
C1078     Br1090   1.936       .  S
C1079      C1080   1.406       .  A
C1079     Br1094   1.931       .  S
C1080      C1083   1.481       .  S
C1080      C1081   1.406       .  A
C1081      C1082   1.406       .  A
C1081     Br1089   1.931       .  S
C1082     Br1093   1.924       .  S
C1083      C1084   1.407       .  A
C1083      C1088   1.409       .  A
C1084      C1085   1.406       .  A
C1084     Br1095   1.932       .  S
C1085      C1086   1.412       .  A
C1085     Br1091   1.928       .  S
C1086      C1087   1.411       .  A
C1087      C1088   1.407       .  A
C1087     Br1096   1.932       .  S
C1088     Br1092   1.930       .  S
C1097      C1098   1.417       .  A
C1097      C1102   1.414       .  A
C1098      C1099   1.408       .  A
C1098     Br1110   1.932       .  S
C1099      C1100   1.409       .  A
C1099     Br1114   1.931       .  S
C1100      C1103   1.491       .  S
C1100      C1101   1.409       .  A
C1101      C1102   1.411       .  A
C1101     Br1109   1.932       .  S
C1102     Br1113   1.924       .  S
C1103      C1104   1.410       .  A
C1103      C1108   1.408       .  A
C1104      C1105   1.411       .  A
C1104     Br1115   1.923       .  S
C1105      C1106   1.413       .  A
C1105     Br1111   1.928       .  S
C1106      C1107   1.422       .  A
C1107      C1108   1.405       .  A
C1107     Br1116   1.939       .  S
C1108     Br1112   1.934       .  S
C1117      C1118   1.408       .  A
C1117      C1122   1.419       .  A
C1118      C1119   1.404       .  A
C1118     Br1130   1.924       .  S
C1119      C1120   1.405       .  A
C1119     Br1134   1.924       .  S
C1120      C1123   1.474       .  S
C1120      C1121   1.404       .  A
C1121      C1122   1.403       .  A
C1121     Br1129   1.932       .  S
C1122     Br1133   1.930       .  S
C1123      C1124   1.406       .  A
C1123      C1128   1.403       .  A
C1124      C1125   1.407       .  A
C1124     Br1135   1.929       .  S
C1125      C1126   1.415       .  A
C1125     Br1131   1.931       .  S
C1126      C1127   1.412       .  A
C1127      C1128   1.401       .  A
C1127     Br1136   1.922       .  S
C1128     Br1132   1.934       .  S
C1137      C1138   1.416       .  A
C1137      C1142   1.415       .  A
C1138      C1139   1.410       .  A
C1138     Br1150   1.930       .  S
C1139      C1140   1.409       .  A
C1139     Br1154   1.931       .  S
C1140      C1143   1.484       .  S
C1140      C1141   1.407       .  A
C1141      C1142   1.405       .  A
C1141     Br1149   1.931       .  S
C1143      C1144   1.407       .  A
C1143      C1148   1.407       .  A
C1144      C1145   1.409       .  A
C1144     Br1155   1.928       .  S
C1145      C1146   1.413       .  A
C1145     Br1151   1.920       .  S
C1146      C1147   1.417       .  A
C1147      C1148   1.405       .  A
C1147     Br1156   1.923       .  S
C1148     Br1152   1.936       .  S
C1157      C1158   1.410       .  A
C1157      C1162   1.411       .  A
C1158      C1159   1.407       .  A
C1158     Br1170   1.929       .  S
C1159      C1160   1.410       .  A
C1159     Br1174   1.930       .  S
C1160      C1163   1.483       .  S
C1160      C1161   1.410       .  A
C1161      C1162   1.406       .  A
C1161     Br1169   1.931       .  S
C1162     Br1173   1.932       .  S
C1163      C1164   1.407       .  A
C1163      C1168   1.406       .  A
C1164      C1165   1.408       .  A
C1164     Br1175   1.929       .  S
C1165      C1166   1.413       .  A
C1165     Br1171   1.921       .  S
C1166      C1167   1.417       .  A
C1167      C1168   1.405       .  A
C1167     Br1176   1.923       .  S
C1168     Br1172   1.936       .  S
C1177      C1178   1.414       .  A
C1177      C1182   1.416       .  A
C1178      C1179   1.406       .  A
C1179      C1180   1.407       .  A
C1179     Br1194   1.929       .  S
C1180      C1183   1.486       .  S
C1180      C1181   1.408       .  A
C1181      C1182   1.411       .  A
C1181     Br1189   1.931       .  S
C1182     Br1193   1.927       .  S
C1183      C1184   1.407       .  A
C1183      C1188   1.406       .  A
C1184      C1185   1.413       .  A
C1184     Br1195   1.928       .  S
C1185      C1186   1.416       .  A
C1185     Br1191   1.923       .  S
C1186      C1187   1.420       .  A
C1187      C1188   1.404       .  A
C1187     Br1196   1.935       .  S
C1188     Br1192   1.936       .  S
C1197      C1198   1.416       .  A
C1197      C1202   1.414       .  A
C1198      C1199   1.404       .  A
C1198     Br1210   1.936       .  S
C1199      C1200   1.407       .  A
C1199     Br1214   1.933       .  S
C1200      C1203   1.477       .  S
C1200      C1201   1.405       .  A
C1201      C1202   1.406       .  A
C1201     Br1209   1.930       .  S
C1202     Br1213   1.923       .  S
C1203      C1204   1.407       .  A
C1203      C1208   1.408       .  A
C1204      C1205   1.405       .  A
C1204     Br1215   1.930       .  S
C1205      C1206   1.410       .  A
C1205     Br1211   1.929       .  S
C1206      C1207   1.409       .  A
C1207      C1208   1.404       .  A
C1207     Br1216   1.931       .  S
C1208     Br1212   1.930       .  S
