geometry optimzed in LAMMPS
_audit_creation_date              2020-12-01 
_audit_creation_method            'lammps2cif' 
_symmetry_space_group_name_H-M    'P1' 
_symmetry_Int_Tables_number       1 
_symmetry_cell_setting            triclinic 
loop_ 
_symmetry_equiv_pos_as_xyz 
  x,y,z 
_cell_length_a                    32.81486026 
_cell_length_b                    32.975128491084774 
_cell_length_c                    56.40373725621034 
_cell_angle_alpha                 90.7841588425624 
_cell_angle_beta                  89.94230561218258 
_cell_angle_gamma                 91.1771531284186 
loop_ 
_atom_site_label 
_atom_site_type_symbol 
_atom_site_fract_x 
_atom_site_fract_y 
_atom_site_fract_z 
_atom_site_charge 
C1          C  0.25136988  0.00033729  0.25003192    -0.02800
N2          N  0.04561834  0.20455777  0.99802141    -0.36900
N3          N  0.50617927  0.24012112  0.96736678    -0.57400
N4          N  0.43739740  0.25883433  0.99758833    -0.36900
N5          N  0.49406303  0.27183905  0.03741773    -0.57400
C6          C  0.07073252  0.20112695  0.97898279     0.26700
C7          C  0.06835154  0.20008319  0.01770717     0.26700
C8          C  0.41683488  0.24604533  0.97800088     0.26700
C9          C  0.41001259  0.26155235  0.01540307     0.26700
C10         C  0.01762689  0.20673087  0.94836338     0.35300
C11         C  0.47611816  0.23051437  0.95183575     0.35300
C12         C  0.01239635  0.20477067  0.04782822     0.35300
C13         C  0.45845561  0.27822476  0.04887252     0.35300
C14         C  0.11010733  0.19479721  0.98666401    -0.22200
C15         C  0.10865654  0.19424440  0.01117958    -0.22200
C16         C  0.37564999  0.24236103  0.98317235    -0.22200
C17         C  0.37136222  0.25174129  0.00681539    -0.22200
C18         C  0.00450272  0.21835423  0.92621681    -0.23200
C19         C  0.49231303  0.21546953  0.93088911    -0.23200
C20         C  0.99805559  0.21689629  0.06991253    -0.23200
C21         C  0.46591094  0.28680999  0.07264984    -0.23200
C22         C  0.05868943  0.20606392  0.95511257    -0.18600
C23         C  0.05400040  0.20519676  0.04123372    -0.18600
C24         C  0.41880486  0.27142735  0.03936303    -0.18600
C25         C  0.43413826  0.23569195  0.95584602    -0.18600
H26         H  0.13705279  0.19151221  0.97577573     0.14300
H27         H  0.13443551  0.19061185  0.02286599     0.14300
H28         H  0.35134660  0.23234131  0.97138538     0.14300
H29         H  0.34299138  0.25075556  0.01661104     0.14300
H30         H  0.02240202  0.23032798  0.91168367     0.12600
H31         H  0.47615153  0.20540090  0.91508716     0.12600
H32         H  0.01537693  0.22871878  0.08487405     0.12600
H33         H  0.44394804  0.29317653  0.08646873     0.12600
H34         H  0.01620059  0.21448022  0.99791512     0.25900
H35         H  0.46793960  0.26701085  0.99854886     0.25900
C36         C  0.24308801  0.99305952  0.75336800    -0.02800
C37         C  0.48967502  0.25398618  0.75469701    -0.02800
N38         N  0.26473350  0.04451095  0.00051100    -0.36900
N39         N  0.24624805  0.99649965  0.04163707    -0.57400
N40         N  0.25908416  0.42581608  0.01242001    -0.36900
N41         N  0.25913827  0.97180607  0.97115309    -0.57400
C42         C  0.27675140  0.07086371  0.01786477     0.26700
C43         C  0.27974556  0.05841332  0.97979661     0.26700
C44         C  0.24441362  0.41029854  0.03292667     0.26700
C45         C  0.25139553  0.39849676  0.99477900     0.26700
C46         C  0.24305990  0.03433782  0.05080122     0.35300
C47         C  0.25689947  0.47181963  0.05777243     0.35300
C48         C  0.25842386  0.00033539  0.95412698     0.35300
C49         C  0.27780548  0.44127347  0.96215132     0.35300
C50         C  0.30001779  0.10195510  0.00798756    -0.22200
C51         C  0.30132110  0.09439224  0.98382966    -0.22200
C52         C  0.22833179  0.37172765  0.02843514    -0.22200
C53         C  0.23211613  0.36454333  0.00422943    -0.22200
C54         C  0.22162575  0.03324270  0.07200871    -0.23200
C55         C  0.26877981  0.49145048  0.07865161    -0.23200
C56         C  0.24593422  0.98334689  0.93272237    -0.23200
C57         C  0.29651143  0.44641175  0.94023281    -0.23200
C58         C  0.26408076  0.06877661  0.04187099    -0.18600
C59         C  0.27062127  0.04127325  0.95730231    -0.18600
C60         C  0.26322812  0.40372559  0.97075355    -0.18600
C61         C  0.24771188  0.42990776  0.05545558    -0.18600
H62         H  0.31358399  0.12798803  0.01708441     0.14300
H63         H  0.31608262  0.11330112  0.97069886     0.14300
H64         H  0.21517768  0.35100994  0.04118569     0.14300
H65         H  0.22242658  0.33724663  0.99477395     0.14300
H66         H  0.21479399  0.05845535  0.08373601     0.12600
H67         H  0.27365297  0.47859888  0.09592056     0.12600
H68         H  0.24292226  0.99823851  0.91585009     0.12600
H69         H  0.30806096  0.42298580  0.92854905     0.12600
H70         H  0.24292699  0.02139347  0.00208664     0.25900
H71         H  0.27689741  0.45200406  0.01084356     0.25900
O72         O  0.29928198  0.23654345  0.87504197    -0.80400
O73         O  0.23081707  0.29223308  0.78790179    -0.80400
O74         O  0.32285628  0.24464216  0.82506390    -0.80400
O75         O  0.24909006  0.31605465  0.86665525    -0.80400
O76         O  0.29224351  0.23266714  0.79100577    -0.80500
O77         O  0.23069889  0.26794522  0.89038201    -0.80400
O78         O  0.24534295  0.32857068  0.81972635    -0.80400
O79         O  0.33339426  0.18638156  0.85847183    -0.80400
C80         C  0.33052051  0.21357909  0.87454288     1.09300
C81         C  0.24063479  0.32651095  0.79762480     1.09200
C82         C  0.32467885  0.24198987  0.80264666     1.09300
C83         C  0.24447477  0.30326313  0.88742572     1.09200
O84         O  0.17964927  0.21172384  0.86503673    -0.80400
O85         O  0.22777201  0.17321918  0.80491653    -0.80500
O86         O  0.25611470  0.16084349  0.86243480    -0.80400
O87         O  0.16286604  0.29134511  0.81733411    -0.80400
O88         O  0.17175223  0.22955552  0.80340863    -0.80400
O89         O  0.24004764  0.19205256  0.89550138    -0.80400
O90         O  0.16778198  0.27685517  0.86581720    -0.80400
O91         O  0.28931004  0.16359475  0.81763901    -0.80400
Co92       Co  0.23877565  0.22252369  0.86760709     1.51500
Co93       Co  0.23132232  0.23253788  0.79931707     1.51700
Co94       Co  0.28640773  0.20742902  0.84318928     1.51600
Co95       Co  0.20887188  0.29918349  0.84180013     1.51500
O96         O  0.23846245  0.24487236  0.83483626    -1.42300
C97         C  0.15839811  0.24094113  0.87238659     1.09200
C98         C  0.25775082  0.15026189  0.80685309     1.09300
C99         C  0.24839294  0.15958466  0.88498218     1.09200
C100        C  0.14955589  0.25990319  0.80606259     1.09200
O101        O  0.23258601  0.31382030  0.19968586    -0.80400
O102        O  0.18449459  0.27700519  0.11554191    -0.80400
O103        O  0.28498478  0.32973137  0.14898527    -0.80400
O104        O  0.16714506  0.19719037  0.18274180    -0.80400
O105        O  0.21898012  0.32318667  0.15058488    -0.80500
O106        O  0.17699315  0.25828064  0.19615909    -0.80400
O107        O  0.17322566  0.21717596  0.13379863    -0.80400
O108        O  0.29746988  0.32015053  0.19533659    -0.80400
C109        C  0.26368814  0.33600296  0.20115202     1.09300
C110        C  0.16298988  0.24481909  0.11831472     1.09200
C111        C  0.25027906  0.34344053  0.14415078     1.09300
C112        C  0.15355262  0.22808047  0.19357024     1.09200
O113        O  0.23178544  0.19456390  0.21343674    -0.80400
O114        O  0.27096943  0.28230357  0.11617331    -0.80500
O115        O  0.32757600  0.23735320  0.18374102    -0.80400
O116        O  0.25685960  0.17533098  0.13683896    -0.80400
O117        O  0.23781630  0.22194984  0.11441756    -0.80400
O118        O  0.29515025  0.25300112  0.21617393    -0.80400
O119        O  0.24951283  0.16344529  0.18098495    -0.80400
O120        O  0.31786099  0.25252452  0.13697655    -0.80400
Co121      Co  0.23515465  0.25454732  0.20362118     1.51500
Co122      Co  0.22379728  0.26772080  0.13798276     1.51700
Co123      Co  0.30367836  0.28138856  0.16648795     1.51600
Co124      Co  0.21518647  0.19353924  0.15939211     1.51500
O125        O  0.24917366  0.24777085  0.16768448    -1.42300
C126        C  0.24366335  0.16244557  0.20286917     1.09200
C127        C  0.30614113  0.26681598  0.11750443     1.09300
C128        C  0.32789755  0.24106625  0.20584543     1.09200
C129        C  0.25365424  0.18816043  0.11643312     1.09200
O130        O  0.98324367  0.07214470  0.70183389    -0.80400
O131        O  0.43309274  0.02662097  0.64322579    -0.80400
O132        O  0.01391920  0.08780215  0.64182295    -0.80400
O133        O  0.41339529  0.44649272  0.68660243    -0.80400
O134        O  0.48883955  0.04534493  0.61017146    -0.80500
O135        O  0.42447556  0.00845364  0.70220531    -0.80400
O136        O  0.41951274  0.46239405  0.63879055    -0.80400
O137        O  0.04393828  0.08584978  0.68789496    -0.80400
C138        C  0.01294607  0.09660992  0.69981258     1.09300
C139        C  0.41045883  0.49851591  0.63355311     1.09200
C140        C  0.00799766  0.08544952  0.61922449     1.09300
C141        C  0.40015538  0.47783822  0.69725185     1.09200
O142        O  0.98508941  0.45098779  0.71716884    -0.80400
O143        O  0.05886524  0.01317414  0.62842160    -0.80500
O144        O  0.07784443  0.00575424  0.68004242    -0.80400
O145        O  0.50117955  0.42707027  0.63855555    -0.80400
O146        O  0.48132631  0.47358727  0.61492157    -0.80400
O147        O  0.04759764  0.01386409  0.71451448    -0.80400
O148        O  0.49590031  0.41402934  0.68460327    -0.80400
O149        O  0.08953911  0.06478182  0.64753353    -0.80400
Co150      Co  0.98631846  0.01262639  0.70600957     1.51500
Co151      Co  0.49144800  0.01897719  0.63856622     1.51700
Co152      Co  0.04206204  0.04239628  0.66191753     1.51600
Co153      Co  0.46022569  0.44164413  0.66271268     1.51500
O154        O  0.99337362  0.00457995  0.67022258    -1.42300
C155        C  0.48913798  0.41488473  0.70645635     1.09200
C156        C  0.08865373  0.03928732  0.63042123     1.09300
C157        C  0.07992917  0.00637610  0.70245801     1.09200
C158        C  0.49649849  0.43959927  0.61788725     1.09200
O159        O  0.05854334  0.00965668  0.28971613    -0.80400
O160        O  0.50527645  0.45666023  0.37934842    -0.80400
O161        O  0.09028875  0.06022534  0.35775784    -0.80400
O162        O  0.45739897  0.41248653  0.30684415    -0.80400
O163        O  0.06642191  0.50318550  0.36887722    -0.80500
O164        O  0.01017770  0.43842205  0.28916537    -0.80400
O165        O  0.49519343  0.41220936  0.35038195    -0.80400
O166        O  0.08564366  0.00080447  0.32423157    -0.80400
C167        C  0.08970705  0.00276005  0.30210598     1.09300
C168        C  0.50688132  0.42088429  0.37113220     1.09200
C169        C  0.09419698  0.03146388  0.37227231     1.09300
C170        C  0.48688308  0.40649864  0.29305284     1.09200
O171        O  0.43858364  0.98529349  0.28925993    -0.80400
O172        O  0.51001576  0.02697723  0.39426001    -0.80500
O173        O  0.04178684  0.07849961  0.31753311    -0.80400
O174        O  0.43194970  0.45980971  0.36828510    -0.80400
O175        O  0.44833541  0.52198002  0.36550143    -0.80400
O176        O  0.98684748  0.05691528  0.29889947    -0.80400
O177        O  0.40856602  0.47883107  0.32306767    -0.80400
O178        O  0.01168610  0.07327849  0.36581244    -0.80400
Co179      Co  0.99876047  0.99834998  0.29521312     1.51500
Co180      Co  0.50781206  0.50944598  0.36296231     1.51700
Co181      Co  0.04429413  0.03370018  0.34246062     1.51600
Co182      Co  0.45339509  0.44608615  0.33625593     1.51500
O183        O  0.99559799  0.49282433  0.33067249    -1.42300
C184        C  0.40636379  0.48885625  0.30159419     1.09200
C185        C  0.01156981  0.06775700  0.38873557     1.09300
C186        C  0.01213187  0.08539125  0.30351694     1.09200
C187        C  0.42740198  0.49520961  0.37562578     1.09200
N188        N  0.50624451  0.20475619  0.50099906    -0.36900
N189        N  0.52614774  0.26893674  0.53292465    -0.57400
N190        N  0.54262246  0.32573052  0.49490269    -0.36900
N191        N  0.52293190  0.25832485  0.46300938    -0.57400
C192        C  0.49067420  0.19021052  0.52144558     0.26700
C193        C  0.48798094  0.18443224  0.48281083     0.26700
C194        C  0.53083075  0.34969459  0.51312034     0.26700
C195        C  0.53159610  0.34380756  0.47469311     0.26700
C196        C  0.52842326  0.23744734  0.54774991     0.35300
C197        C  0.54564154  0.30048635  0.54351972     0.35300
C198        C  0.52252637  0.22256819  0.45128943     0.35300
C199        C  0.54170883  0.28507668  0.44871307     0.35300
C200        C  0.46201582  0.15984059  0.51621495    -0.22200
C201        C  0.46041742  0.15608748  0.49173897    -0.22200
C202        C  0.51198849  0.38366315  0.50437752    -0.22200
C203        C  0.51360954  0.38053084  0.47994290    -0.22200
C204        C  0.55095503  0.24844927  0.56767659    -0.23200
C205        C  0.56154848  0.28876237  0.56509025    -0.23200
C206        C  0.54277308  0.22611268  0.42978302    -0.23200
C207        C  0.55421184  0.26614992  0.42793824    -0.23200
C208        C  0.50561857  0.20123502  0.54434146    -0.18600
C209        C  0.49936486  0.18878497  0.45871996    -0.18600
C210        C  0.53759991  0.32684787  0.45196862    -0.18600
C211        C  0.53758876  0.34057312  0.53712922    -0.18600
H212        H  0.44488817  0.14165081  0.52871753     0.14300
H213        H  0.44186326  0.13445113  0.48171383     0.14300
H214        H  0.49837209  0.40802195  0.51447674     0.14300
H215        H  0.50162591  0.40202541  0.46754998     0.14300
H216        H  0.55698840  0.23020743  0.58303080     0.12600
H217        H  0.57633072  0.30810577  0.57829423     0.12600
H218        H  0.54672511  0.20297848  0.41623212     0.12600
H219        H  0.56805539  0.28008312  0.41257114     0.12600
H220        H  0.53216550  0.22313323  0.49962437     0.25900
H221        H  0.55924963  0.29912768  0.49610911     0.25900
N222        N  0.19659303  0.05130042  0.50297775    -0.36900
N223        N  0.26043794  0.04302597  0.46736898    -0.57400
N224        N  0.32326210  0.03824614  0.50336535    -0.36900
N225        N  0.25921071  0.04504246  0.53882828    -0.57400
C226        C  0.17332116  0.04322915  0.48360552     0.26700
C227        C  0.17307835  0.04577585  0.52246673     0.26700
C228        C  0.34426100  0.02586847  0.48404018     0.26700
C229        C  0.34290433  0.02474475  0.52270616     0.26700
C230        C  0.22833121  0.05013997  0.45311273     0.35300
C231        C  0.29407310  0.04569292  0.45353230     0.35300
C232        C  0.22763140  0.05571194  0.55274150     0.35300
C233        C  0.29249450  0.04692767  0.55282642     0.35300
C234        C  0.13383867  0.03393349  0.49087792    -0.22200
C235        C  0.13372648  0.03540937  0.51542259    -0.22200
C236        C  0.37857006  0.00541088  0.49118559    -0.22200
C237        C  0.37763760  0.00460212  0.51566796    -0.22200
C238        C  0.24187077  0.05745009  0.43019763    -0.23200
C239        C  0.28330034  0.05494636  0.43052231    -0.23200
C240        C  0.24108462  0.06492313  0.57554365    -0.23200
C241        C  0.28208115  0.05931982  0.57559918    -0.23200
C242        C  0.18679686  0.04554843  0.45966890    -0.18600
C243        C  0.18632229  0.05120033  0.54627902    -0.18600
C244        C  0.33078146  0.03171789  0.54643993    -0.18600
C245        C  0.33334865  0.03344408  0.46026487    -0.18600
H246        H  0.10784726  0.02676292  0.47969075     0.14300
H247        H  0.10770324  0.02957177  0.52675937     0.14300
H248        H  0.40166306  0.99217620  0.47995024     0.14300
H249        H  0.39992205  0.99079389  0.52697793     0.14300
H250        H  0.22397800  0.06259020  0.41448683     0.12600
H251        H  0.30294755  0.05762310  0.41518662     0.12600
H252        H  0.22312272  0.07297828  0.59092768     0.12600
H253        H  0.30157871  0.06232052  0.59100442     0.12600
H254        H  0.22622909  0.06344569  0.50286542     0.25900
H255        H  0.29876957  0.05782019  0.50338470     0.25900
C256        C  0.49522474  0.23945096  0.24979688    -0.02800
C257        C  0.49421179  0.28987785  0.28604618    -0.20600
C258        C  0.49212412  0.28363343  0.26126181    -0.07100
C259        C  0.98851209  0.32320938  0.24788100     0.13700
C260        C  0.98963425  0.36181704  0.25919212    -0.20600
C261        C  0.49095470  0.36435006  0.28250308    -0.07100
C262        C  0.49373158  0.32911233  0.29664459     0.13700
C263        C  0.49687770  0.33249461  0.32317450    -0.24000
H264        H  0.49644430  0.26400201  0.29746634     0.15000
H265        H  0.98675496  0.38894990  0.24873271     0.15000
C266        C  0.98226535  0.32344940  0.22133254    -0.23900
H267        H  0.50010173  0.30242224  0.33152653     0.05300
H268        H  0.46886376  0.34616760  0.33048669     0.08500
H269        H  0.52414514  0.35126694  0.32800023     0.08500
H270        H  0.95159987  0.31120561  0.21679975     0.08500
H271        H  0.00618501  0.30667561  0.21192993     0.08500
H272        H  0.98348113  0.35465386  0.21416767     0.05200
C273        C  0.46602810  0.17103317  0.26799832    -0.20600
C274        C  0.99982485  0.20444372  0.26700068    -0.07100
C275        C  0.03286117  0.19654138  0.28314697     0.13700
C276        C  0.03471599  0.15886125  0.29543993    -0.20600
C277        C  0.00662854  0.12649598  0.29164628    -0.07100
C278        C  0.46835161  0.13385643  0.27999108     0.13700
C279        C  0.43136449  0.10565376  0.27888357    -0.24000
H280        H  0.43919263  0.17359733  0.25732357     0.15000
H281        H  0.05975554  0.15393148  0.30749659     0.15000
C282        C  0.06868546  0.22542445  0.28682592    -0.23900
H283        H  0.40477086  0.11989175  0.27041727     0.05300
H284        H  0.42180217  0.09721805  0.29708710     0.08500
H285        H  0.43817297  0.07811035  0.26819860     0.08500
H286        H  0.05922570  0.25487253  0.29417627     0.08500
H287        H  0.08577681  0.22945315  0.27012576     0.08500
H288        H  0.09091901  0.21356713  0.29970250     0.05200
C289        C  0.02025259  0.12321195  0.44821327    -0.20600
C290        C  0.00590688  0.16137835  0.44286403    -0.07100
C291        C  0.47442511  0.15950169  0.41905356     0.13700
C292        C  0.48018132  0.12977499  0.40123400    -0.20600
C293        C  0.00805531  0.09963303  0.40753821    -0.07100
C294        C  0.02041499  0.09192028  0.43140462     0.13700
C295        C  0.03476823  0.05131306  0.43997250    -0.24000
H296        H  0.03288440  0.11821328  0.46566698     0.15000
H297        H  0.46738641  0.13378302  0.38373968     0.15000
C298        C  0.44740804  0.19487464  0.41424513    -0.23900
H299        H  0.04409953  0.05229566  0.45889800     0.05300
H300        H  0.06156673  0.04154173  0.42968023     0.08500
H301        H  0.00969540  0.02830406  0.43849982     0.08500
H302        H  0.46461507  0.22404269  0.41556532     0.08500
H303        H  0.42213105  0.19511539  0.42734736     0.08500
H304        H  0.43381040  0.19269625  0.39623792     0.05200
C305        C  0.48312347  0.37350774  0.40069279    -0.20600
C306        C  0.51603002  0.38925115  0.38780194    -0.07100
C307        C  0.06032189  0.38656656  0.39399667     0.13700
C308        C  0.07148416  0.36907165  0.41551217    -0.20600
C309        C  0.52953946  0.35037202  0.43062130    -0.07100
C310        C  0.48936662  0.35345372  0.42193663     0.13700
C311        C  0.45312797  0.33558951  0.43491908    -0.24000
H312        H  0.45237819  0.37841829  0.39456592     0.15000
H313        H  0.10340799  0.36633155  0.42000832     0.15000
C314        C  0.09259295  0.39908981  0.37643416    -0.23900
H315        H  0.42418983  0.34060794  0.42528874     0.05300
H316        H  0.45031233  0.34972421  0.45276247     0.08500
H317        H  0.45666361  0.30237786  0.43675326     0.08500
H318        H  0.08915674  0.43111008  0.37147635     0.08500
H319        H  0.08930970  0.38009926  0.36011763     0.08500
H320        H  0.12376967  0.39523440  0.38360690     0.05200
C321        C  0.14793574  0.07660249  0.42707912    -0.20600
C322        C  0.15711041  0.04159271  0.43966157    -0.07100
C323        C  0.14795918  0.50594367  0.42682405     0.13700
C324        C  0.12765626  0.50409133  0.40490597    -0.20600
C325        C  0.11971116  0.03582777  0.39418260    -0.07100
C326        C  0.13018019  0.07438281  0.40439116     0.13700
C327        C  0.12262625  0.11363781  0.39187326    -0.24000
H328        H  0.15710350  0.10585701  0.43454130     0.15000
H329        H  0.11975856  0.47476425  0.39735981     0.15000
C330        C  0.15934207  0.46714317  0.43872453    -0.23900
H331        H  0.13297398  0.14044464  0.40256738     0.05300
H332        H  0.08957010  0.11696506  0.38855894     0.08500
H333        H  0.13964573  0.11423794  0.37485906     0.08500
H334        H  0.14448833  0.46534880  0.45636874     0.08500
H335        H  0.19291000  0.46618601  0.44097490     0.08500
H336        H  0.14946754  0.43998412  0.42818541     0.05200
C337        C  0.40951348  0.54066314  0.40976465    -0.20600
C338        C  0.40292185  0.50372639  0.39743155    -0.07100
C339        C  0.37508934  0.47475705  0.40715870     0.13700
C340        C  0.35512421  0.48364108  0.42857855    -0.20600
C341        C  0.36179897  0.52052344  0.44068504    -0.07100
C342        C  0.38976066  0.54922744  0.43131920     0.13700
C343        C  0.39883615  0.58943505  0.44336723    -0.24000
H344        H  0.43019662  0.56325001  0.40258656     0.15000
H345        H  0.34080712  0.96073816  0.44104460     0.15000
C346        C  0.36464640  0.43498985  0.39485226    -0.23900
H347        H  0.43195529  0.59201432  0.44722426     0.05300
H348        H  0.37096411  0.10138818  0.45336336     0.08500
H349        H  0.39037986  0.61446300  0.43147819     0.08500
H350        H  0.40290315  0.91365682  0.40138292     0.08500
H351        H  0.35382322  0.44060129  0.37656770     0.08500
H352        H  0.35277026  0.91067581  0.41351636     0.05200
C353        C  0.15219001  0.51349434  0.57696135    -0.20600
C354        C  0.15705006  0.04827817  0.56635458    -0.07100
C355        C  0.14325586  0.08341530  0.57826284     0.13700
C356        C  0.12432976  0.07973260  0.60042680    -0.20600
C357        C  0.11842686  0.04177034  0.61095646    -0.07100
C358        C  0.13089543  0.50984189  0.59849442     0.13700
C359        C  0.13390305  0.47045912  0.61152885    -0.24000
H360        H  0.16969835  0.48809784  0.57046329     0.15000
H361        H  0.11220842  0.10658405  0.60896889     0.15000
C362        C  0.14956819  0.12536231  0.56852692    -0.23900
H363        H  0.12375915  0.44477528  0.59994394     0.05300
H364        H  0.11526985  0.46976939  0.62785501     0.08500
H365        H  0.16615815  0.46571497  0.61653316     0.08500
H366        H  0.16430426  0.12525892  0.55083838     0.08500
H367        H  0.16907429  0.14363472  0.58089673     0.08500
H368        H  0.11976559  0.14028607  0.56682670     0.05200
C369        C  0.39626738  0.04302354  0.60072035    -0.20600
C370        C  0.38580163  0.50653925  0.61192492    -0.07100
C371        C  0.36069729  0.47658847  0.60055169     0.13700
C372        C  0.34414992  0.48453463  0.57813380    -0.20600
C373        C  0.35269939  0.52105017  0.56649278    -0.07100
C374        C  0.38182771  0.05027282  0.57788080     0.13700
C375        C  0.39140978  0.09024759  0.56625581    -0.24000
H376        H  0.41385430  0.06684620  0.60953185     0.15000
H377        H  0.32342276  0.46261208  0.56983412     0.15000
C378        C  0.34991741  0.43680057  0.61204824    -0.23900
H379        H  0.41140185  0.11009998  0.57750910     0.05300
H380        H  0.36284838  0.10663582  0.56282425     0.08500
H381        H  0.40734942  0.08466027  0.54919004     0.08500
H382        H  0.33682370  0.44243092  0.62991968     0.08500
H383        H  0.37730157  0.41793177  0.61346467     0.08500
H384        H  0.32705948  0.41898015  0.60151897     0.05200
C385        C  0.03428569  0.13884507  0.56146335    -0.20600
C386        C  0.02034307  0.17788655  0.56583103    -0.07100
C387        C  0.48538349  0.18124319  0.58696573     0.13700
C388        C  0.48642439  0.15187672  0.60497065    -0.20600
C389        C  0.01407739  0.11776794  0.60128478    -0.07100
C390        C  0.02881291  0.10803568  0.57792784     0.13700
C391        C  0.03655867  0.06527597  0.56897902    -0.24000
H392        H  0.04755198  0.13184759  0.54429009     0.15000
H393        H  0.47490434  0.15915573  0.62250233     0.15000
C394        C  0.46541018  0.22097345  0.59260501    -0.23900
H395        H  0.05152470  0.06489980  0.55128198     0.05300
H396        H  0.00715280  0.04832965  0.56706262     0.08500
H397        H  0.05635109  0.04879022  0.58112764     0.08500
H398        H  0.46340469  0.24089543  0.57700993     0.08500
H399        H  0.48272152  0.23735316  0.60680679     0.08500
H400        H  0.43379688  0.21501745  0.59889150     0.05200
C401        C  0.49751974  0.35409016  0.57331273    -0.20600
C402        C  0.52569644  0.36894702  0.55651852    -0.07100
C403        C  0.05648229  0.41206154  0.56265291     0.13700
C404        C  0.04245548  0.43369948  0.58256441    -0.20600
C405        C  0.50650748  0.41463594  0.59722381    -0.07100
C406        C  0.48930837  0.37554390  0.59415190     0.13700
C407        C  0.46197453  0.35648467  0.61260495    -0.24000
H408        H  0.48327770  0.32442405  0.57060952     0.15000
H409        H  0.05597159  0.46302478  0.58705884     0.15000
C410        C  0.09258027  0.42822348  0.54894818    -0.23900
H411        H  0.45029889  0.32605639  0.60685465     0.05300
H412        H  0.43546105  0.37600422  0.61605671     0.08500
H413        H  0.47919042  0.35265109  0.62932695     0.08500
H414        H  0.08436875  0.43368143  0.53027017     0.08500
H415        H  0.11776546  0.40629549  0.54955354     0.08500
H416        H  0.10374551  0.45755648  0.55640226     0.05200
C417        C  0.10078405  0.26778248  0.21475413    -0.20600
C418        C  0.11152461  0.23024042  0.20494906    -0.07100
C419        C  0.08492716  0.19688810  0.20958634     0.13700
C420        C  0.04863967  0.20271546  0.22308493    -0.20600
C421        C  0.03788863  0.24064246  0.23365576    -0.07100
C422        C  0.06899388  0.27221796  0.23126305     0.13700
C423        C  0.07682490  0.30811342  0.24789140    -0.24000
H424        H  0.12091438  0.29378660  0.21193711     0.15000
H425        H  0.02891259  0.17657984  0.22604823     0.15000
C426        C  0.09489002  0.15487295  0.20094271    -0.23900
H427        H  0.11009466  0.31235926  0.25109959     0.05300
H428        H  0.06515130  0.30393870  0.26594709     0.08500
H429        H  0.06641777  0.33655809  0.23981523     0.08500
H430        H  0.12427021  0.14548741  0.20870115     0.08500
H431        H  0.09712022  0.15442072  0.18130202     0.08500
H432        H  0.07112913  0.13222858  0.20615441     0.05200
C433        C  0.41704844  0.24413235  0.25070979    -0.20600
C434        C  0.45210577  0.23539574  0.23642637    -0.07100
C435        C  0.44353040  0.22522130  0.21209492     0.13700
C436        C  0.40273147  0.22555412  0.20370701    -0.20600
C437        C  0.36893139  0.23631185  0.21792809    -0.07100
C438        C  0.37674232  0.24538772  0.24197999     0.13700
C439        C  0.34308846  0.25726575  0.25870154    -0.24000
H440        H  0.42147700  0.25047081  0.26942830     0.15000
H441        H  0.39732884  0.21784227  0.18523326     0.15000
C442        C  0.47532181  0.21389805  0.19401737    -0.23900
H443        H  0.35447205  0.26274444  0.27702738     0.05300
H444        H  0.31960502  0.23265175  0.25938938     0.08500
H445        H  0.32910805  0.28571686  0.25268616     0.08500
H446        H  0.48667221  0.18332086  0.19771713     0.08500
H447        H  0.50012708  0.23703659  0.19318262     0.08500
H448        H  0.46257717  0.21174410  0.17579650     0.05200
C449        C  0.25434030  0.14109788  0.05409223    -0.20600
C450        C  0.27192456  0.10362541  0.05866040    -0.07100
C451        C  0.29092948  0.09794393  0.08086643     0.13700
C452        C  0.28571915  0.12670658  0.09906911    -0.20600
C453        C  0.26469876  0.16276487  0.09530568    -0.07100
C454        C  0.25159383  0.17130100  0.07186297     0.13700
C455        C  0.23338137  0.21122670  0.06531996    -0.24000
H456        H  0.24071094  0.14593324  0.03688944     0.15000
H457        H  0.29761342  0.12037542  0.11652917     0.15000
C458        C  0.31561959  0.06109084  0.08617909    -0.23900
H459        H  0.20430163  0.21555227  0.07487538     0.05300
H460        H  0.22666632  0.21271107  0.04605471     0.08500
H461        H  0.25513994  0.23643689  0.06969448     0.08500
H462        H  0.31969941  0.04111250  0.07042044     0.08500
H463        H  0.30053210  0.04328119  0.10039796     0.08500
H464        H  0.34646436  0.07091930  0.09230232     0.05200
C465        C  0.21115342  0.37973761  0.11279982    -0.20600
C466        C  0.24866473  0.37257919  0.12400264    -0.07100
C467        C  0.28513548  0.38607870  0.11242333     0.13700
C468        C  0.28324576  0.40029122  0.08920423    -0.20600
C469        C  0.24612435  0.40618859  0.07781811    -0.07100
C470        C  0.20951893  0.39770701  0.09021417     0.13700
C471        C  0.16894449  0.40824045  0.07980366    -0.24000
H472        H  0.18304611  0.37060245  0.12149720     0.15000
H473        H  0.31115462  0.40921518  0.08017671     0.15000
C474        C  0.32668667  0.38624008  0.12400913    -0.23900
H475        H  0.14343404  0.40068957  0.09203080     0.05300
H476        H  0.16388303  0.39124767  0.06292649     0.08500
H477        H  0.16827688  0.44128596  0.07634184     0.08500
H478        H  0.33872215  0.35510218  0.12471706     0.08500
H479        H  0.32488440  0.39988330  0.14208172     0.08500
H480        H  0.34935192  0.40457995  0.11389356     0.05200
C481        C  0.28675755  0.10070014  0.90001380    -0.20600
C482        C  0.25031111  0.12238933  0.89939391    -0.07100
C483        C  0.22037953  0.11466035  0.91691379     0.13700
C484        C  0.22840442  0.08821921  0.93536426    -0.20600
C485        C  0.26568533  0.06899301  0.93699481    -0.07100
C486        C  0.29485504  0.07406389  0.91878056     0.13700
C487        C  0.33452696  0.05210507  0.91953037    -0.24000
H488        H  0.30977044  0.10629576  0.88660047     0.15000
H489        H  0.20550133  0.08273579  0.94889683     0.15000
C490        C  0.17952118  0.13397629  0.91624581    -0.23900
H491        H  0.35462708  0.06049835  0.90444321     0.05300
H492        H  0.32854957  0.01886840  0.91867664     0.08500
H493        H  0.35080284  0.05971380  0.93629675     0.08500
H494        H  0.15920088  0.12223283  0.93041160     0.08500
H495        H  0.16503250  0.12688073  0.89888860     0.08500
H496        H  0.18265981  0.16719639  0.91905635     0.05200
C497        C  0.27542246  0.31605702  0.92706307    -0.20600
C498        C  0.25104121  0.32965463  0.90839716    -0.07100
C499        C  0.22846452  0.36521661  0.91151066     0.13700
C500        C  0.22775937  0.38406480  0.93385690    -0.20600
C501        C  0.25424639  0.37245323  0.95206621    -0.07100
C502        C  0.27906848  0.33846473  0.94841616     0.13700
C503        C  0.31079974  0.32725976  0.96629293    -0.24000
H504        H  0.29284285  0.28874190  0.92452856     0.15000
H505        H  0.20996035  0.41115631  0.93633720     0.15000
C506        C  0.20621167  0.38425988  0.89119741    -0.23900
H507        H  0.32880554  0.30115758  0.95994635     0.05300
H508        H  0.29608927  0.31894369  0.98330342     0.08500
H509        H  0.33226004  0.35327336  0.96935987     0.08500
H510        H  0.18948112  0.41159393  0.89702567     0.08500
H511        H  0.18397000  0.36266486  0.88297526     0.08500
H512        H  0.22860754  0.39373825  0.87748299     0.05200
C513        C  0.46955665  0.17834028  0.74322998    -0.20600
C514        C  0.99732328  0.21496978  0.73605161    -0.07100
C515        C  0.01008132  0.21244644  0.71149015     0.13700
C516        C  0.01629703  0.17377579  0.70043332    -0.20600
C517        C  0.01039845  0.13710633  0.71247581    -0.07100
C518        C  0.47276626  0.14068565  0.73108709     0.13700
C519        C  0.44229782  0.10760779  0.73758169    -0.24000
H520        H  0.44611791  0.17977553  0.75654676     0.15000
H521        H  0.02498376  0.17205266  0.68190311     0.15000
C522        C  0.01934039  0.24885100  0.69623328    -0.23900
H523        H  0.42150411  0.11703560  0.75210003     0.05300
H524        H  0.45846534  0.08047243  0.74378662     0.08500
H525        H  0.42277518  0.09969615  0.72207948     0.08500
H526        H  0.04051052  0.27073676  0.70506911     0.08500
H527        H  0.99104207  0.26371727  0.69093480     0.08500
H528        H  0.03440862  0.23996772  0.67935577     0.05200
C529        C  0.48211270  0.33126010  0.75372995    -0.20600
C530        C  0.48336457  0.29451436  0.74006518    -0.07100
C531        C  0.47907740  0.29920571  0.71502364     0.13700
C532        C  0.48268511  0.33845587  0.70513781    -0.20600
C533        C  0.48663631  0.37446258  0.71901847    -0.07100
C534        C  0.48499231  0.37032287  0.74384412     0.13700
C535        C  0.48773177  0.40666238  0.76028952    -0.24000
H536        H  0.48202373  0.32943358  0.77279780     0.15000
H537        H  0.48070770  0.34088207  0.68602401     0.15000
C538        C  0.46770302  0.26554264  0.69770340    -0.23900
H539        H  0.48790508  0.39776558  0.77921129     0.05300
H540        H  0.46107240  0.42625655  0.75763063     0.08500
H541        H  0.07362946  0.40604252  0.72515498     0.08500
H542        H  0.45741958  0.23711488  0.70590345     0.08500
H543        H  0.91381666  0.29060631  0.69901164     0.08500
H544        H  0.44138627  0.27506736  0.68688096     0.05200
C545        C  0.06927032  0.25141298  0.75727759    -0.20600
C546        C  0.03131049  0.25170673  0.76936083    -0.07100
C547        C  0.03400707  0.24863790  0.79471714     0.13700
C548        C  0.07229582  0.25539669  0.80626172    -0.20600
C549        C  0.10914118  0.25878019  0.79353267    -0.07100
C550        C  0.10715272  0.25393232  0.76863233     0.13700
C551        C  0.14422005  0.25103752  0.75289699    -0.24000
H552        H  0.06971641  0.25046339  0.73818387     0.15000
H553        H  0.07375770  0.25469417  0.82545705     0.15000
C554        C  0.99966852  0.23391784  0.81038157    -0.23900
H555        H  0.14299397  0.27459831  0.73906027     0.05300
H556        H  0.14416341  0.22083990  0.74393705     0.08500
H557        H  0.17339558  0.25495634  0.76246665     0.08500
H558        H  0.98750134  0.25939887  0.82109999     0.08500
H559        H  0.01130667  0.21099751  0.82280048     0.08500
H560        H  0.97506037  0.21784968  0.80059760     0.05200
C561        C  0.41148773  0.24676071  0.75581181    -0.20600
C562        C  0.44769633  0.25257012  0.76946919    -0.07100
C563        C  0.44094589  0.25986976  0.79442761     0.13700
C564        C  0.40115378  0.25500206  0.80420981    -0.20600
C565        C  0.36598097  0.24713926  0.79038364    -0.07100
C566        C  0.37180202  0.24362604  0.76554903     0.13700
C567        C  0.33657355  0.23626482  0.74877736    -0.24000
H568        H  0.41438428  0.24355048  0.73682915     0.15000
H569        H  0.39748255  0.25898184  0.82319521     0.15000
C570        C  0.47233587  0.27623558  0.81186263    -0.23900
H571        H  0.34660167  0.23513715  0.72996935     0.05300
H572        H  0.31450900  0.26120637  0.75057443     0.08500
H573        H  0.32134238  0.20670612  0.75262617     0.08500
H574        H  0.48181819  0.25187123  0.82390952     0.08500
H575        H  0.45866323  0.30053357  0.82295510     0.08500
H576        H  0.49901332  0.29126572  0.80386942     0.05200
C577        C  0.34701430  0.01837774  0.71769741    -0.20600
C578        C  0.35735358  0.48083209  0.70757369    -0.07100
C579        C  0.32594426  0.45074702  0.70688801     0.13700
C580        C  0.28849010  0.45720762  0.71921578    -0.20600
C581        C  0.28234912  0.99237801  0.73564799    -0.07100
C582        C  0.31509704  0.02304754  0.73403732     0.13700
C583        C  0.32399030  0.05878906  0.75071191    -0.24000
H584        H  0.36767103  0.04395536  0.71497013     0.15000
H585        H  0.26526487  0.43345390  0.71828971     0.15000
C586        C  0.33159748  0.41163823  0.69337468    -0.23900
H587        H  0.35591948  0.07044397  0.74934008     0.05300
H588        H  0.32266783  0.04996125  0.76943259     0.08500
H589        H  0.30606052  0.08543342  0.74613120     0.08500
H590        H  0.35746012  0.39496707  0.70097281     0.08100
H591        H  0.33782420  0.41811984  0.67443517     0.08500
H592        H  0.30402874  0.39161163  0.69426582     0.05200
C593        C  0.12484147  0.01073433  0.73886566    -0.20600
C594        C  0.12114919  0.00060740  0.71477984    -0.07100
C595        C  0.15739638  0.98758151  0.70318116     0.13700
C596        C  0.19487170  0.98465207  0.71580663    -0.20600
C597        C  0.19913091  0.99422430  0.74028126    -0.07100
C598        C  0.15960416  0.49459579  0.74935295     0.13700
C599        C  0.15665839  0.49631822  0.77612963    -0.24000
H600        H  0.09446408  0.50154742  0.74707081     0.15000
H601        H  0.22120674  0.97568913  0.70582508     0.15000
C602        C  0.15753801  0.97705525  0.67714515    -0.23900
H603        H  0.16432400  0.52736689  0.78269481     0.05300
H604        H  0.18301019  0.01164976  0.78903309     0.08500
H605        H  0.12519067  0.48919179  0.78229729     0.08500
H606        H  0.15063838  0.00442032  0.66676590     0.08500
H607        H  0.13464964  0.95256457  0.67335600     0.08500
H608        H  0.18764161  0.96615128  0.67105159     0.05200
C609        C  0.25905582  0.03496175  0.79227003    -0.20600
C610        C  0.24568384  0.03391480  0.76826903    -0.07100
C611        C  0.23532512  0.07234343  0.75815835     0.13700
C612        C  0.23896520  0.10832221  0.77172918    -0.20600
C613        C  0.25507341  0.10938032  0.79466827    -0.07100
C614        C  0.26521892  0.07209523  0.80511221     0.13700
C615        C  0.28207892  0.07131279  0.82988429    -0.24000
H616        H  0.26672530  0.00692721  0.80075039     0.15000
H617        H  0.23087981  0.13676400  0.76369496     0.15000
C618        C  0.22495335  0.07801031  0.73222174    -0.23900
H619        H  0.28820283  0.03990591  0.83556655     0.05300
H620        H  0.25990392  0.08466085  0.84247525     0.08500
H621        H  0.31119899  0.08900760  0.83074874     0.08500
H622        H  0.19154794  0.07540611  0.72951026     0.08500
H623        H  0.24091762  0.05637428  0.72050182     0.08500
H624        H  0.23483426  0.10857617  0.72612655     0.05200
C625        C  0.21390764  0.41630009  0.75759789    -0.20600
C626        C  0.24227020  0.44831493  0.76403266    -0.07100
C627        C  0.27401660  0.43560952  0.77975840     0.13700
C628        C  0.27285109  0.39620475  0.79001941    -0.20600
C629        C  0.24331483  0.36613964  0.78397908    -0.07100
C630        C  0.21396635  0.37681342  0.76709847     0.13700
C631        C  0.18184341  0.34660428  0.75895614    -0.24000
H632        H  0.19125926  0.42069722  0.74413737     0.15000
H633        H  0.29623464  0.38852020  0.80266779     0.15000
C634        C  0.31119492  0.46105823  0.78578746    -0.23900
H635        H  0.19703864  0.32100556  0.74988198     0.05300
H636        H  0.16013699  0.35969307  0.74619886     0.08500
H637        H  0.16393295  0.33557307  0.77436017     0.08500
H638        H  0.31150060  0.49066959  0.77734689     0.08500
H639        H  0.33892761  0.44506286  0.77982992     0.08500
H640        H  0.31291595  0.46610746  0.80527088     0.05200
C641        C  0.08888682  0.25514683  0.06732487    -0.20600
C642        C  0.08376115  0.21448232  0.06031057    -0.07100
C643        C  0.10204574  0.18377850  0.07352724     0.13700
C644        C  0.12527682  0.19462172  0.09351007    -0.20600
C645        C  0.13113491  0.23543941  0.10045193    -0.07100
C646        C  0.11219822  0.26615874  0.08722981     0.13700
C647        C  0.11589451  0.31055497  0.09387953    -0.24000
H648        H  0.07376180  0.27832375  0.05732577     0.15000
H649        H  0.14048440  0.17095191  0.10304833     0.15000
C650        C  0.09808340  0.13946589  0.06689002    -0.23900
H651        H  0.09516545  0.32927738  0.08321079     0.05300
H652        H  0.14730657  0.32196965  0.09045605     0.08500
H653        H  0.10793630  0.31509545  0.11285436     0.08500
H654        H  0.12884065  0.12724140  0.06340198     0.08500
H655        H  0.07926471  0.13386240  0.05082831     0.08500
H656        H  0.08385397  0.12257942  0.08175547     0.05200
C657        C  0.38596124  0.23548852  0.07240922    -0.20600
C658        C  0.38503083  0.26819634  0.05682395    -0.07100
C659        C  0.35579240  0.29858208  0.06007062     0.13700
C660        C  0.32902117  0.29588041  0.07937192    -0.20600
C661        C  0.33258186  0.26523424  0.09630816    -0.07100
C662        C  0.36166811  0.23458735  0.09274664     0.13700
C663        C  0.36885710  0.20170614  0.11050225    -0.24000
H664        H  0.40851835  0.21230312  0.06963594     0.15000
H665        H  0.30650173  0.31909167  0.08180698     0.15000
C666        C  0.35286240  0.33472577  0.04412697    -0.23900
H667        H  0.39086528  0.17907356  0.10383334     0.05300
H668        H  0.34006526  0.18534327  0.11454686     0.08500
H669        H  0.38164679  0.21522930  0.12708423     0.08500
H670        H  0.32203892  0.33520445  0.03602686     0.08500
H671        H  0.37564573  0.33455918  0.02962347     0.08500
H672        H  0.35779780  0.36301448  0.05472791     0.05200
C673        C  0.10274314  0.25239317  0.93191249    -0.20600
C674        C  0.08886686  0.21267491  0.93565192    -0.07100
C675        C  0.09348037  0.18351555  0.91726033     0.13700
C676        C  0.11366756  0.19439340  0.89613422    -0.20600
C677        C  0.12928703  0.23387565  0.89262060    -0.07100
C678        C  0.12195411  0.26362178  0.91062681     0.13700
C679        C  0.13427795  0.30735400  0.90802102    -0.24000
H680        H  0.09665584  0.27525000  0.94539378     0.15000
H681        H  0.11768305  0.17168293  0.88232025     0.15000
C682        C  0.07621938  0.14104428  0.91977948    -0.23900
H683        H  0.12450012  0.32638535  0.92332058     0.05300
H684        H  0.12041803  0.31983302  0.89179841     0.08500
H685        H  0.16772530  0.30938126  0.90724338     0.08500
H686        H  0.04249380  0.14152413  0.92080752     0.08500
H687        H  0.08805437  0.12733715  0.93619383     0.08500
H688        H  0.08449737  0.12133339  0.90447285     0.05200
C689        C  0.40072823  0.26206186  0.92016095    -0.20600
C690        C  0.40671238  0.22929933  0.93522536    -0.07100
C691        C  0.39006995  0.19072965  0.92933975     0.13700
C692        C  0.36774106  0.18577235  0.90828783    -0.20600
C693        C  0.36095159  0.21873272  0.89344017    -0.07100
C694        C  0.37758408  0.25737386  0.89942266     0.13700
C695        C  0.37156406  0.29351070  0.88380326    -0.24000
H696        H  0.41430810  0.29139203  0.92470564     0.15000
H697        H  0.35415956  0.15647077  0.90391580     0.15000
C698        C  0.39565107  0.15510275  0.94535357    -0.23900
H699        H  0.38862823  0.32073112  0.89052596     0.05300
H700        H  0.33887981  0.30128334  0.88313346     0.08500
H701        H  0.38257674  0.28657813  0.86560752     0.08500
H702        H  0.38219230  0.16157255  0.96302459     0.08500
H703        H  0.42859498  0.14910265  0.94745518     0.08500
H704        H  0.38055045  0.12724753  0.93807232     0.05200
C705        C  0.36590013  0.50314533  0.26565167    -0.20600
C706        C  0.36617345  0.49960708  0.29028301    -0.07100
C707        C  0.32875134  0.50613830  0.30238021     0.13700
C708        C  0.29214431  0.51148296  0.28924797    -0.20600
C709        C  0.29066638  0.50635337  0.26419646    -0.07100
C710        C  0.32986766  0.50603827  0.25249029     0.13700
C711        C  0.33779075  0.00443546  0.22630876    -0.24000
H712        H  0.39450999  0.50122419  0.25615485     0.15000
H713        H  0.26461762  0.51776070  0.29893424     0.15000
C714        C  0.32685826  0.50733201  0.32904854    -0.23900
H715        H  0.37033869  0.00214765  0.22113501     0.05300
H716        H  0.32818587  0.03355159  0.21895014     0.08500
H717        H  0.32180923  0.47928376  0.21764413     0.08500
H718        H  0.35245496  0.03588102  0.33477942     0.08500
H719        H  0.33499874  0.47738133  0.33619357     0.08500
H720        H  0.29580402  0.51432519  0.33557059     0.05200
C721        C  0.13601864  0.02189527  0.26912668    -0.20600
C722        C  0.13111153  0.00063666  0.29011359    -0.07100
C723        C  0.16327095  0.48146306  0.29879572     0.13700
C724        C  0.20011968  0.48004637  0.28520400    -0.20600
C725        C  0.20844548  0.00178093  0.26404816    -0.07100
C726        C  0.17202197  0.02162248  0.25548600     0.13700
C727        C  0.16682819  0.04166755  0.23160900    -0.24000
H728        H  0.11036313  0.03907253  0.26294881     0.15000
H729        H  0.22449486  0.46214120  0.29191882     0.15000
C730        C  0.16094848  0.45996204  0.32213986    -0.23900
H731        H  0.13427144  0.04562624  0.22693508     0.05300
H732        H  0.17864095  0.02317612  0.21689119     0.08500
H733        H  0.18002354  0.07272015  0.23181081     0.08500
H734        H  0.13572699  0.43699160  0.32172265     0.08500
H735        H  0.15549401  0.48222945  0.33668439     0.08500
H736        H  0.18968500  0.44422423  0.32614506     0.05200
C737        C  0.25354231  0.07762232  0.24909647    -0.20600
C738        C  0.25347934  0.04106056  0.23505473    -0.07100
C739        C  0.25353237  0.04677601  0.20981046     0.13700
C740        C  0.25053914  0.08646171  0.20059806    -0.20600
C741        C  0.24863189  0.12192503  0.21492353    -0.07100
C742        C  0.25096162  0.11698320  0.23965408     0.13700
C743        C  0.25008534  0.15286201  0.25644364    -0.24000
H744        H  0.25348717  0.07522949  0.26821757     0.15000
H745        H  0.24912815  0.08952834  0.18150583     0.15000
C746        C  0.25542446  0.01349879  0.19126625    -0.23900
H747        H  0.25367811  0.14373789  0.27519543     0.05300
H748        H  0.22048722  0.16832216  0.25497119     0.08500
H749        H  0.27541201  0.17432522  0.25216266     0.08500
H750        H  0.22464458  0.00740023  0.18372709     0.08500
H751        H  0.26837685  0.98537209  0.19749430     0.08500
H752        H  0.27597341  0.02308423  0.17661382     0.05200
C753        C  0.22186330  0.44062970  0.22161923    -0.20600
C754        C  0.25186564  0.45521890  0.23771165    -0.07100
C755        C  0.28133687  0.42472047  0.24382646     0.13700
C756        C  0.28825417  0.39103350  0.22871724    -0.20600
C757        C  0.25984193  0.37835774  0.21175360    -0.07100
C758        C  0.22483426  0.40299397  0.20905938     0.13700
C759        C  0.19022205  0.39048724  0.19283315    -0.24000
H760        H  0.19504303  0.45815994  0.21914085     0.15000
H761        H  0.31262719  0.37056699  0.23293619     0.15000
C762        C  0.29934580  0.41930707  0.26820413    -0.23900
H763        H  0.16594208  0.41345853  0.19263663     0.05300
H764        H  0.17582566  0.36163237  0.19874843     0.08500
H765        H  0.20164381  0.38727754  0.17447096     0.08500
H766        H  0.28325882  0.43600959  0.28216239     0.08500
H767        H  0.33245923  0.42650328  0.26812270     0.08500
H768        H  0.29563538  0.38715198  0.27365083     0.05200
C769        C  0.24924653  0.50000908  0.24954665    -0.02800
N770        N  0.04333995  0.74840076  0.99386711    -0.36900
N771        N  0.49106358  0.76024697  0.95901488    -0.57400
N772        N  0.42472656  0.77739909  0.99179598    -0.36900
N773        N  0.47758304  0.74581216  0.02821900    -0.57400
C774        C  0.05874541  0.72853170  0.97481659     0.26700
C775        C  0.05462637  0.72882021  0.01359680     0.26700
C776        C  0.40515595  0.77125165  0.97094615     0.26700
C777        C  0.39824735  0.76864024  0.00941762     0.26700
C778        C  0.02748762  0.77266692  0.94572597     0.35300
C779        C  0.46561570  0.78290733  0.94651573     0.35300
C780        C  0.01224330  0.76758676  0.04120335     0.35300
C781        C  0.44965312  0.76657077  0.04083963     0.35300
C782        C  0.08032256  0.69546243  0.98266714    -0.22200
C783        C  0.07834578  0.69614370  0.00723584    -0.22200
C784        C  0.36502825  0.75953125  0.97532179    -0.22200
C785        C  0.36055935  0.75815457  0.99977304    -0.22200
C786        C  0.02724731  0.79573932  0.92535734    -0.23200
C787        C  0.48571709  0.79902828  0.92705310    -0.23200
C788        C  0.00467617  0.78933822  0.06189261    -0.23200
C789        C  0.46473766  0.77648329  0.06315186    -0.23200
C790        C  0.05527587  0.74208237  0.95102024    -0.18600
C791        C  0.04585421  0.74239041  0.03697677    -0.18600
C792        C  0.40864287  0.77018365  0.03373745    -0.18600
C793        C  0.42352122  0.77670436  0.94845437    -0.18600
H794        H  0.09625949  0.67342035  0.97194884     0.14300
H795        H  0.09247438  0.67498745  0.01903666     0.14300
H796        H  0.34158302  0.75268472  0.96230258     0.14300
H797        H  0.33312741  0.74962181  0.00930666     0.14300
H798        H  0.05080394  0.79794922  0.91196645     0.12600
H799        H  0.47268297  0.81611169  0.91279714     0.12600
H800        H  0.02419093  0.79287401  0.07725770     0.12600
H801        H  0.44902545  0.79197532  0.07740626     0.12600
H802        H  0.02983346  0.77680472  0.99375688     0.25900
H803        H  0.45442281  0.78887139  0.99404417     0.25900
C804        C  0.24067041  0.49127907  0.75032349    -0.02800
C805        C  0.48623458  0.75294838  0.75165668    -0.02800
N806        N  0.26022721  0.54930304  0.99845040    -0.36900
N807        N  0.25228241  0.49902631  0.04033282    -0.57400
N808        N  0.23684548  0.92340809  0.01269700    -0.36900
N809        N  0.26503894  0.47717522  0.97059260    -0.57400
C810        C  0.24802706  0.57679775  0.01466518     0.26700
C811        C  0.25210839  0.56427789  0.97683633     0.26700
C812        C  0.23827539  0.90729660  0.03466327     0.26700
C813        C  0.24497009  0.89368732  0.99668725     0.26700
C814        C  0.26152448  0.53569113  0.05006645     0.35300
C815        C  0.22774929  0.97133107  0.05714464     0.35300
C816        C  0.27482854  0.50484574  0.95401691     0.35300
C817        C  0.24660700  0.93670294  0.96059525     0.35300
C818        C  0.23226584  0.61010743  0.00336709    -0.22200
C819        C  0.23501838  0.60222538  0.97931539    -0.22200
C820        C  0.24656261  0.86632401  0.03258497    -0.22200
C821        C  0.25052172  0.85766518  0.00858562    -0.22200
C822        C  0.27242240  0.53172698  0.07364031    -0.23200
C823        C  0.21230025  0.99323684  0.07614230    -0.23200
C824        C  0.29403575  0.48669044  0.93492894    -0.23200
C825        C  0.23895912  0.94304392  0.93669733    -0.23200
C826        C  0.25387596  0.57303702  0.03920627    -0.18600
C827        C  0.26334882  0.54556105  0.95526546    -0.18600
C828        C  0.24502448  0.89838788  0.97167538    -0.18600
C829        C  0.23054275  0.92875022  0.05620371    -0.18600
H830        H  0.22085147  0.63748572  0.01157580     0.14300
H831        H  0.22618920  0.62234997  0.96530484     0.14300
H832        H  0.24902990  0.84483995  0.04682414     0.14300
H833        H  0.25667596  0.82823067  0.00081941     0.14300
H834        H  0.28042381  0.55563259  0.08624055     0.12600
H835        H  0.19708072  0.98142734  0.09170264     0.12600
H836        H  0.30420574  0.50075602  0.91867818     0.12600
H837        H  0.22959282  0.92111733  0.92326494     0.12600
H838        H  0.27771274  0.52440224  0.00205932     0.25900
H839        H  0.22704872  0.95242421  0.00862631     0.25900
O840        O  0.30407568  0.74624475  0.86656868    -0.80400
O841        O  0.22898704  0.79533763  0.78854296    -0.80400
O842        O  0.31744624  0.74987141  0.81986513    -0.80400
O843        O  0.24094715  0.81101964  0.86918790    -0.80400
O844        O  0.28834502  0.73367787  0.78655636    -0.80500
O845        O  0.23302470  0.75806730  0.89048635    -0.80400
O846        O  0.23308935  0.82910390  0.82281318    -0.80400
O847        O  0.33833491  0.69456619  0.85235683    -0.80400
C848        C  0.33705079  0.72615258  0.86573956     1.09300
C849        C  0.23387637  0.82874779  0.80042727     1.09200
C850        C  0.32016204  0.74525590  0.79777618     1.09300
C851        C  0.23875393  0.79533633  0.88937846     1.09200
O852        O  0.19134248  0.69755296  0.86704205    -0.80400
O853        O  0.22511309  0.67406176  0.79992763    -0.80500
O854        O  0.26211214  0.65910796  0.85701359    -0.80400
O855        O  0.15601490  0.78538698  0.81987145    -0.80400
O856        O  0.16848905  0.72997109  0.79922242    -0.80400
O857        O  0.26440148  0.68958913  0.89120056    -0.80400
O858        O  0.16599140  0.75937036  0.86647977    -0.80400
O859        O  0.28727395  0.66428898  0.81248148    -0.80400
Co860      Co  0.24760929  0.72010461  0.86472857     1.51500
Co861      Co  0.22832953  0.73393175  0.79634496     1.51700
Co862      Co  0.28644972  0.70852779  0.83831258     1.51600
Co863      Co  0.20189943  0.79209833  0.84369524     1.51500
O864        O  0.23450810  0.74184035  0.83263584    -1.42300
C865        C  0.16424784  0.72241448  0.87334581     1.09200
C866        C  0.25470054  0.65062012  0.80248663     1.09300
C867        C  0.26445198  0.65697906  0.87970478     1.09200
C868        C  0.14478884  0.75759028  0.80536153     1.09200
O869        O  0.22984074  0.81401474  0.19984753    -0.80400
O870        O  0.17960352  0.77873654  0.11515995    -0.80400
O871        O  0.27655530  0.83263315  0.14752234    -0.80400
O872        O  0.16180022  0.69859129  0.18102715    -0.80400
O873        O  0.21139493  0.82181575  0.15187109    -0.80500
O874        O  0.17452373  0.75759185  0.19716359    -0.80400
O875        O  0.16703804  0.71750311  0.13113027    -0.80400
O876        O  0.29414813  0.82158918  0.19372292    -0.80400
C877        C  0.26076993  0.83664506  0.20073240     1.09300
C878        C  0.15883468  0.74596110  0.11565064     1.09200
C879        C  0.24025312  0.84447071  0.14469990     1.09300
C880        C  0.15002505  0.72849590  0.19334428     1.09200
O881        O  0.23114381  0.69413848  0.21220656    -0.80400
O882        O  0.26521094  0.78636384  0.11473731    -0.80500
O883        O  0.32612259  0.74104566  0.18087296    -0.80400
O884        O  0.24941752  0.67476772  0.13523071    -0.80400
O885        O  0.23347863  0.72374978  0.11346792    -0.80400
O886        O  0.29436478  0.75322478  0.21411657    -0.80400
O887        O  0.24203191  0.66176735  0.17899767    -0.80400
O888        O  0.31258132  0.75623751  0.13458007    -0.80400
Co889      Co  0.23343456  0.75425803  0.20282779     1.51500
Co890      Co  0.21921014  0.76861456  0.13721988     1.51700
Co891      Co  0.29879208  0.78413430  0.16436946     1.51600
Co892      Co  0.20896438  0.69421404  0.15764213     1.51500
O893        O  0.24534321  0.74789468  0.16639617    -1.42300
C894        C  0.23989790  0.66142992  0.20116012     1.09200
C895        C  0.30066369  0.77124937  0.11541486     1.09300
C896        C  0.32717010  0.74325957  0.20307906     1.09200
C897        C  0.24551601  0.68843706  0.11517386     1.09200
O898        O  0.97924467  0.56859199  0.70014202    -0.80400
O899        O  0.43122918  0.52719522  0.64262824    -0.80400
O900        O  0.00492665  0.58429395  0.64022707    -0.80400
O901        O  0.41461443  0.94715073  0.68747869    -0.80400
O902        O  0.48619333  0.54670241  0.60921174    -0.80500
O903        O  0.42391740  0.50797802  0.70053832    -0.80400
O904        O  0.42156545  0.96180057  0.63956232    -0.80400
O905        O  0.03889842  0.58519550  0.68698689    -0.80400
C906        C  0.00737018  0.59477741  0.69886465     1.09300
C907        C  0.41267873  0.99783382  0.63405820     1.09200
C908        C  0.99736769  0.58142469  0.61756001     1.09300
C909        C  0.40082656  0.97830325  0.69818453     1.09200
O910        O  0.98382145  0.95283224  0.71629400    -0.80400
O911        O  0.05244614  0.51316580  0.62834731    -0.80500
O912        O  0.07624610  0.50690388  0.67812216    -0.80400
O913        O  0.50363486  0.92700972  0.63999547    -0.80400
O914        O  0.48390617  0.97279723  0.61598042    -0.80400
O915        O  0.04670533  0.51226263  0.71307218    -0.80400
O916        O  0.49879437  0.91676431  0.68582045    -0.80400
O917        O  0.08254887  0.56680528  0.64497161    -0.80400
Co918      Co  0.98517230  0.50971773  0.70561765     1.51500
Co919      Co  0.48957428  0.51948435  0.63751891     1.51700
Co920      Co  0.03737221  0.54109824  0.66075437     1.51600
Co921      Co  0.46212422  0.94219719  0.66383878     1.51500
O922        O  0.99247304  0.49798293  0.67014630    -1.42300
C923        C  0.49082920  0.91665383  0.70744888     1.09200
C924        C  0.08122736  0.54066888  0.62820844     1.09300
C925        C  0.07862410  0.50549439  0.70048210     1.09200
C926        C  0.49975884  0.93921855  0.61920562     1.09200
O927        O  0.05653378  0.51023577  0.28914587    -0.80400
O928        O  0.50179002  0.95172464  0.38068653    -0.80400
O929        O  0.08452844  0.56390546  0.35739351    -0.80400
O930        O  0.45950997  0.90821292  0.30733832    -0.80400
O931        O  0.07029517  0.00021854  0.36927368    -0.80500
O932        O  0.01026892  0.93889701  0.28829690    -0.80400
O933        O  0.49440165  0.90698149  0.35174099    -0.80400
O934        O  0.08279881  0.50437312  0.32409929    -0.80400
C935        C  0.08744059  0.50492120  0.30196925     1.09300
C936        C  0.50582996  0.91621577  0.37249935     1.09200
C937        C  0.08973559  0.53500857  0.37164651     1.09300
C938        C  0.48839174  0.90424462  0.29280040     1.09200
O939        O  0.43795068  0.48753591  0.28846716    -0.80400
O940        O  0.51314619  0.53259463  0.39296284    -0.80500
O941        O  0.03583086  0.58061801  0.31719010    -0.80400
O942        O  0.42975814  0.95572366  0.36872825    -0.80400
O943        O  0.44640709  0.01762579  0.36527387    -0.80400
O944        O  0.98437312  0.55701769  0.29575761    -0.80400
O945        O  0.40807427  0.97333378  0.32322909    -0.80400
O946        O  0.00595882  0.57441112  0.36536330    -0.80400
Co947      Co  0.99706308  0.49813409  0.29405214     1.51500
Co948      Co  0.50561217  0.00427332  0.36404496     1.51700
Co949      Co  0.03964921  0.53594170  0.34194920     1.51600
Co950      Co  0.45268910  0.94086075  0.33694101     1.51500
O951        O  0.99903458  0.99138944  0.33167748    -1.42300
C952        C  0.40679729  0.98557440  0.30214144     1.09200
C953        C  0.00611347  0.56862524  0.38826283     1.09300
C954        C  0.00730123  0.58657671  0.30223574     1.09200
C955        C  0.42531114  0.99146611  0.37571142     1.09200
N956        N  0.51909628  0.70787012  0.50100367    -0.36900
N957        N  0.53773399  0.77058315  0.53382978    -0.57400
N958        N  0.55919854  0.82884563  0.49670402    -0.36900
N959        N  0.54082839  0.76238867  0.46413132    -0.57400
C960        C  0.50185933  0.69302655  0.52093395     0.26700
C961        C  0.50068417  0.68958629  0.48217691     0.26700
C962        C  0.54630542  0.85255068  0.51480973     0.26700
C963        C  0.55072659  0.84785865  0.47630394     0.26700
C964        C  0.53875335  0.73862539  0.54842503     0.35300
C965        C  0.55669624  0.80170229  0.54514980     0.35300
C966        C  0.53928191  0.72708119  0.45195169     0.35300
C967        C  0.56164603  0.78889356  0.45059567     0.35300
C968        C  0.47201242  0.66439457  0.51475218    -0.22200
C969        C  0.47125019  0.66225712  0.49020300    -0.22200
C970        C  0.53052423  0.88794294  0.50584759    -0.22200
C971        C  0.53402126  0.88527629  0.48142768    -0.22200
C972        C  0.55997733  0.74891902  0.56893595    -0.23200
C973        C  0.57091484  0.78926581  0.56698069    -0.23200
C974        C  0.56111589  0.73035455  0.43098467    -0.23200
C975        C  0.57469790  0.76993116  0.42992705    -0.23200
C976        C  0.51568092  0.70275821  0.54423891    -0.18600
C977        C  0.51347586  0.69448629  0.45832671    -0.18600
C978        C  0.55667701  0.83068581  0.45350024    -0.18600
C979        C  0.54951923  0.84206920  0.53896711    -0.18600
H980        H  0.45330941  0.64648753  0.52665997     0.14300
H981        H  0.45195617  0.64229587  0.47952585     0.14300
H982        H  0.51747121  0.91281723  0.51576056     0.14300
H983        H  0.52398020  0.90754302  0.46890098     0.14300
H984        H  0.56481210  0.73021326  0.58424830     0.12600
H985        H  0.58485212  0.80815753  0.58069964     0.12600
H986        H  0.56441240  0.70756899  0.41716172     0.12600
H987        H  0.58980651  0.78378527  0.41493633     0.12600
H988        H  0.54605155  0.72521850  0.50038273     0.25900
H989        H  0.57417895  0.80137766  0.49820332     0.25900
N990        N  0.19472474  0.55359119  0.50095414    -0.36900
N991        N  0.25980057  0.54281431  0.46608072    -0.57400
N992        N  0.32077798  0.53666094  0.50283031    -0.36900
N993        N  0.25567574  0.54618419  0.53748530    -0.57400
C994        C  0.17245327  0.54497077  0.48127087     0.26700
C995        C  0.17051926  0.54751222  0.52013772     0.26700
C996        C  0.34212245  0.52327403  0.48386720     0.26700
C997        C  0.33926410  0.52322136  0.52255400     0.26700
C998        C  0.22859382  0.55167893  0.45154408     0.35300
C999        C  0.29400734  0.54463704  0.45269183     0.35300
C1000       C  0.22385147  0.55810021  0.55087163     0.35300
C1001       C  0.28855935  0.54808018  0.55181127     0.35300
C1002       C  0.13294577  0.53456526  0.48799686    -0.22200
C1003       C  0.13175929  0.53605016  0.51254326    -0.22200
C1004       C  0.37541846  0.50187949  0.49161322    -0.22200
C1005       C  0.37356171  0.50178053  0.51611266    -0.22200
C1006       C  0.24320086  0.55934706  0.42889457    -0.23200
C1007       C  0.28453080  0.55512614  0.42966797    -0.23200
C1008       C  0.23672766  0.56835741  0.57361272    -0.23200
C1009       C  0.27764857  0.56186179  0.57424272    -0.23200
C1010       C  0.18680829  0.54773141  0.45752805    -0.18600
C1011       C  0.18270799  0.55318326  0.54415726    -0.18600
C1012       C  0.32670805  0.53170196  0.54608417    -0.18600
C1013       C  0.33258934  0.53114122  0.45991928    -0.18600
H1014       H  0.10770106  0.52645653  0.47644145     0.14300
H1015       H  0.10546240  0.52937514  0.52352630     0.14300
H1016       H  0.39850038  0.48773852  0.48076205     0.14300
H1017       H  0.39503298  0.48770447  0.52783042     0.14300
H1018       H  0.22590165  0.56587494  0.41313762     0.12600
H1019       H  0.30501327  0.55770784  0.41468474     0.12600
H1020       H  0.21823533  0.57755907  0.58856866     0.12600
H1021       H  0.29674267  0.56518796  0.58980225     0.12600
H1022       H  0.22424433  0.56639843  0.50117249     0.25900
H1023       H  0.29690176  0.55718975  0.50239587     0.25900
C1024       C  0.49680119  0.74053591  0.24506765    -0.02800
C1025       C  0.49329011  0.78815355  0.28258194    -0.20600
C1026       C  0.49421471  0.78399216  0.25760829    -0.07100
C1027       C  0.98518448  0.82434806  0.24667545     0.13700
C1028       C  0.98765608  0.86285993  0.25818667    -0.20600
C1029       C  0.49311875  0.86296482  0.28117357    -0.07100
C1030       C  0.49328179  0.82646326  0.29432315     0.13700
C1031       C  0.49431023  0.82747432  0.32100714    -0.24000
H1032       H  0.49232213  0.76124934  0.29329217     0.15000
H1033       H  0.98518854  0.89024519  0.24791248     0.15000
C1034       C  0.97881512  0.82485837  0.22014654    -0.23900
H1035       H  0.49632002  0.79660295  0.32849737     0.05300
H1036       H  0.46610696  0.84109696  0.32808828     0.08500
H1037       H  0.52146373  0.84528906  0.32712677     0.08500
H1038       H  0.94821701  0.81241612  0.21558387     0.08500
H1039       H  0.00277020  0.80814188  0.21071054     0.08500
H1040       H  0.97994343  0.85615484  0.21311036     0.05200
C1041       C  0.46974060  0.66999010  0.26066524    -0.20600
C1042       C  0.99500259  0.70580968  0.26610707    -0.07100
C1043       C  0.02874765  0.69728810  0.28167546     0.13700
C1044       C  0.03073375  0.65945784  0.29374320    -0.20600
C1045       C  0.00103519  0.62824976  0.29121421    -0.07100
C1046       C  0.47157086  0.63295884  0.27281467     0.13700
C1047       C  0.43700837  0.60250620  0.26873676    -0.24000
H1048       H  0.44487106  0.67168961  0.24835923     0.15000
H1049       H  0.05698807  0.65351360  0.30469529     0.15000
C1050       C  0.06495959  0.72580222  0.28522332    -0.23900
H1051       H  0.41242115  0.61460507  0.25749067     0.05300
H1052       H  0.42280307  0.59418972  0.28592148     0.08500
H1053       H  0.44841438  0.57510346  0.25943971     0.08500
H1054       H  0.05583964  0.75539212  0.29253709     0.08500
H1055       H  0.08225539  0.72950087  0.26858745     0.08500
H1056       H  0.08702600  0.71386310  0.29816878     0.05200
C1057       C  0.02110181  0.62484992  0.44704329    -0.20600
C1058       C  0.00533837  0.66263027  0.44222070    -0.07100
C1059       C  0.48731826  0.66831334  0.41800454     0.13700
C1060       C  0.48942691  0.63783506  0.40023146    -0.20600
C1061       C  0.00380128  0.60053148  0.40715507    -0.07100
C1062       C  0.01920384  0.59324929  0.43044713     0.13700
C1063       C  0.03414906  0.55265391  0.43865162    -0.24000
H1064       H  0.03566315  0.62025058  0.46403017     0.15000
H1065       H  0.47699679  0.64312445  0.38278242     0.15000
C1066       C  0.46483125  0.70670149  0.41305997    -0.23900
H1067       H  0.04566625  0.55393144  0.45715841     0.05300
H1068       H  0.05950614  0.54225725  0.42738983     0.08500
H1069       H  0.00870658  0.52994152  0.43829541     0.08500
H1070       H  0.48548412  0.73363021  0.41405381     0.08500
H1071       H  0.44001122  0.71034667  0.42626285     0.08500
H1072       H  0.45091116  0.70586007  0.39511546     0.05200
C1073       C  0.49028097  0.87030454  0.40470550    -0.20600
C1074       C  0.51947283  0.88577116  0.38904614    -0.07100
C1075       C  0.06504568  0.88487936  0.39478881     0.13700
C1076       C  0.07690793  0.86735876  0.41619789    -0.20600
C1077       C  0.54355471  0.85218886  0.43209283    -0.07100
C1078       C  0.50175165  0.85259049  0.42594889     0.13700
C1079       C  0.46913922  0.83387737  0.44149445    -0.24000
H1080       H  0.45831327  0.87315487  0.40055435     0.15000
H1081       H  0.10890482  0.86275471  0.41980808     0.15000
C1082       C  0.09652790  0.89548637  0.37632278    -0.23900
H1083       H  0.43830968  0.83667705  0.43364697     0.05300
H1084       H  0.46876860  0.84907116  0.45912685     0.08500
H1085       H  0.47478079  0.80108867  0.44369813     0.08500
H1086       H  0.09483604  0.92779503  0.37153921     0.08500
H1087       H  0.09073998  0.87683128  0.36009237     0.08500
H1088       H  0.12790125  0.88960145  0.38260237     0.05200
C1089       C  0.14676289  0.57938377  0.42552735    -0.20600
C1090       C  0.15777281  0.54404468  0.43723047    -0.07100
C1091       C  0.14628863  0.00327873  0.42982501     0.13700
C1092       C  0.12747453  0.00091868  0.40743318    -0.20600
C1093       C  0.11705203  0.53933107  0.39276650    -0.07100
C1094       C  0.12681569  0.57771566  0.40344457     0.13700
C1095       C  0.11574885  0.61726184  0.39222656    -0.24000
H1096       H  0.15522195  0.60851933  0.43340856     0.15000
H1097       H  0.11859998  0.97147601  0.40035997     0.15000
C1098       C  0.15515436  0.96477439  0.44277908    -0.23900
H1099       H  0.12535682  0.64385443  0.40332467     0.05300
H1100       H  0.08229087  0.61876648  0.38992899     0.08500
H1101       H  0.13111323  0.62013092  0.37477623     0.08500
H1102       H  0.13881207  0.96448975  0.46000298     0.08500
H1103       H  0.18840455  0.96268967  0.44600702     0.08500
H1104       H  0.14508970  0.93740745  0.43248880     0.05200
C1105       C  0.40365200  0.04144514  0.40680988    -0.20600
C1106       C  0.40142250  0.00152529  0.39758371    -0.07100
C1107       C  0.37856800  0.97189826  0.41037822     0.13700
C1108       C  0.35927633  0.98295618  0.43165841    -0.20600
C1109       C  0.36168862  0.02265531  0.44064961    -0.07100
C1110       C  0.38433521  0.05229307  0.42815729     0.13700
C1111       C  0.38780824  0.09572960  0.43663703    -0.24000
H1112       H  0.42027397  0.06464885  0.39721785     0.15000
H1113       H  0.33276582  0.46226970  0.43556609     0.15000
C1114       C  0.37310543  0.92870283  0.40173187    -0.23900
H1115       H  0.42028954  0.10355413  0.43994608     0.05300
H1116       H  0.38219897  0.59317941  0.46034588     0.08500
H1117       H  0.37579191  0.11607432  0.42288288     0.08500
H1118       H  0.39163389  0.41538838  0.39435535     0.08500
H1119       H  0.35931712  0.92811862  0.38376050     0.08500
H1120       H  0.34012306  0.41788405  0.40422525     0.05200
C1121       C  0.15284739  0.01054825  0.57743669    -0.20600
C1122       C  0.15276834  0.54966756  0.56406592    -0.07100
C1123       C  0.13313397  0.58386849  0.57374115     0.13700
C1124       C  0.11209194  0.58041563  0.59543086    -0.20600
C1125       C  0.10969389  0.54350343  0.60769860    -0.07100
C1126       C  0.13380103  0.00677499  0.59962876     0.13700
C1127       C  0.13322697  0.96617549  0.61168028    -0.24000
H1128       H  0.16696180  0.98443819  0.56927970     0.15000
H1129       H  0.09630091  0.60654114  0.60244323     0.15000
C1130       C  0.13527157  0.62471342  0.56208553    -0.23900
H1131       H  0.14734902  0.94233762  0.60048672     0.05300
H1132       H  0.10183563  0.95582664  0.61595457     0.08500
H1133       H  0.15098017  0.96868853  0.62831304     0.08500
H1134       H  0.15219859  0.62426760  0.54507353     0.08500
H1135       H  0.15059648  0.64705239  0.57417433     0.08500
H1136       H  0.10414268  0.63516590  0.55835915     0.05200
C1137       C  0.39305399  0.54362325  0.60026244    -0.20600
C1138       C  0.38901053  0.00568942  0.61210345    -0.07100
C1139       C  0.36485792  0.97553544  0.60028032     0.13700
C1140       C  0.34910406  0.98358863  0.57770013    -0.20600
C1141       C  0.35737744  0.02052226  0.56642943    -0.07100
C1142       C  0.37792814  0.55066443  0.57751322     0.13700
C1143       C  0.38810413  0.59009115  0.56541058    -0.24000
H1144       H  0.41149396  0.56724055  0.60868664     0.15000
H1145       H  0.32884655  0.96159074  0.56908337     0.15000
C1146       C  0.35405084  0.93552976  0.61151996    -0.23900
H1147       H  0.40868344  0.60986787  0.57635989     0.05300
H1148       H  0.35981751  0.60692433  0.56196369     0.08500
H1149       H  0.40366382  0.58374642  0.54830439     0.08500
H1150       H  0.34023649  0.94082928  0.62924630     0.08500
H1151       H  0.38158122  0.91695260  0.61323653     0.08500
H1152       H  0.33177553  0.91758380  0.60064861     0.05200
C1153       C  0.02182626  0.63506918  0.56000077    -0.20600
C1154       C  0.01192082  0.67517244  0.56505750    -0.07100
C1155       C  0.49227838  0.68265361  0.58637839     0.13700
C1156       C  0.49119610  0.65300207  0.60426907    -0.20600
C1157       C  0.00240186  0.61418889  0.59984303    -0.07100
C1158       C  0.01529188  0.60426118  0.57626020     0.13700
C1159       C  0.02161337  0.56129184  0.56719818    -0.24000
H1160       H  0.03383268  0.62748824  0.54261059     0.15000
H1161       H  0.47892412  0.66049489  0.62159430     0.15000
C1162       C  0.47336870  0.72297401  0.59186561    -0.23900
H1163       H  0.03466632  0.56045311  0.54901856     0.05300
H1164       H  0.99188120  0.54465723  0.56630631     0.08500
H1165       H  0.04274068  0.54487318  0.57870985     0.08500
H1166       H  0.47253169  0.74305745  0.57629855     0.08500
H1167       H  0.49060857  0.73871746  0.60633166     0.08500
H1168       H  0.44136878  0.71795587  0.59773199     0.05200
C1169       C  0.50616851  0.85439693  0.57415199    -0.20600
C1170       C  0.53588144  0.86977123  0.55838214    -0.07100
C1171       C  0.05948909  0.91031935  0.56245928     0.13700
C1172       C  0.04481940  0.93359036  0.58138271    -0.20600
C1173       C  0.51208975  0.91463709  0.59872323    -0.07100
C1174       C  0.49558103  0.87545055  0.59480024     0.13700
C1175       C  0.46650954  0.85587760  0.61215276    -0.24000
H1176       H  0.49233977  0.82473823  0.57077189     0.15000
H1177       H  0.05648784  0.96429830  0.58413712     0.15000
C1178       C  0.09498248  0.92715585  0.54849398    -0.23900
H1179       H  0.45576358  0.82541653  0.60588080     0.05300
H1180       H  0.43949672  0.87508936  0.61469642     0.08500
H1181       H  0.48193918  0.85203641  0.62945782     0.08500
H1182       H  0.10612105  0.90597340  0.53468632     0.08500
H1183       H  0.12079818  0.93313811  0.56069651     0.08500
H1184       H  0.08643131  0.95593275  0.53998822     0.05200
C1185       C  0.09726374  0.76844147  0.21408463    -0.20600
C1186       C  0.10807738  0.73078854  0.20457018    -0.07100
C1187       C  0.08174319  0.69731538  0.20942807     0.13700
C1188       C  0.04549864  0.70317908  0.22287405    -0.20600
C1189       C  0.03442610  0.74133136  0.23293140    -0.07100
C1190       C  0.06538731  0.77302653  0.23046941     0.13700
C1191       C  0.07328632  0.80898601  0.24702800    -0.24000
H1192       H  0.11741702  0.79439786  0.21114385     0.15000
H1193       H  0.02573693  0.67708064  0.22595349     0.15000
C1194       C  0.09189522  0.65516769  0.20107971    -0.23900
H1195       H  0.10651475  0.81268037  0.25056766     0.05300
H1196       H  0.06100548  0.80529292  0.26496798     0.08500
H1197       H  0.06360150  0.83749140  0.23870687     0.08500
H1198       H  0.12148539  0.64619456  0.20874724     0.08500
H1199       H  0.09376925  0.65422701  0.18143027     0.08500
H1200       H  0.06838527  0.63248552  0.20660302     0.05200
C1201       C  0.41837686  0.74418962  0.24703401    -0.20600
C1202       C  0.45311766  0.73782135  0.23205722    -0.07100
C1203       C  0.44370246  0.73046644  0.20747580     0.13700
C1204       C  0.40252259  0.73042001  0.19967208    -0.20600
C1205       C  0.36893642  0.73872097  0.21460216    -0.07100
C1206       C  0.37760661  0.74565670  0.23882337     0.13700
C1207       C  0.34435297  0.75543978  0.25627574    -0.24000
H1208       H  0.42336943  0.74856697  0.26586908     0.15000
H1209       H  0.39662208  0.72445980  0.18104725     0.15000
C1210       C  0.47491911  0.72294000  0.18838281    -0.23900
H1211       H  0.35634233  0.75967535  0.27457021     0.05300
H1212       H  0.32138844  0.73031186  0.25654780     0.08500
H1213       H  0.32955088  0.78404346  0.25123985     0.08500
H1214       H  0.48634152  0.69177113  0.18972267     0.08500
H1215       H  0.49965965  0.74615866  0.18877237     0.08500
H1216       H  0.46157221  0.72453383  0.17033730     0.05200
C1217       C  0.21605274  0.60588175  0.07136193    -0.20600
C1218       C  0.24828118  0.60832991  0.05515762    -0.07100
C1219       C  0.27808144  0.63953622  0.05747116     0.13700
C1220       C  0.27531769  0.66704290  0.07653420    -0.20600
C1221       C  0.24591388  0.66157401  0.09424624    -0.07100
C1222       C  0.21506020  0.63135908  0.09125861     0.13700
C1223       C  0.18078756  0.62574215  0.10881587    -0.24000
H1224       H  0.19320908  0.58185585  0.06926652     0.15000
H1225       H  0.29689969  0.69182388  0.07798049     0.15000
C1226       C  0.31382979  0.64243341  0.04075768    -0.23900
H1227       H  0.19306751  0.62014972  0.12676994     0.05300
H1228       H  0.16052264  0.59954761  0.10394772     0.08500
H1229       H  0.16175461  0.65301812  0.10910945     0.08500
H1230       H  0.33120592  0.61390811  0.04117874     0.08500
H1231       H  0.33494020  0.66790296  0.04570127     0.08500
H1232       H  0.30303516  0.64752718  0.02243857     0.05200
C1233       C  0.19797241  0.87084408  0.11168186    -0.20600
C1234       C  0.23317567  0.87514937  0.12592240    -0.07100
C1235       C  0.26559629  0.90027717  0.11765051     0.13700
C1236       C  0.26446823  0.91525732  0.09450202    -0.20600
C1237       C  0.23090512  0.90778694  0.07955186    -0.07100
C1238       C  0.19666995  0.88642658  0.08852888     0.13700
C1239       C  0.15900270  0.87984749  0.07363705    -0.24000
H1240       H  0.17207987  0.85340908  0.11812287     0.15000
H1241       H  0.28979552  0.93379504  0.08816488     0.15000
C1242       C  0.30175727  0.91225990  0.13284131    -0.23900
H1243       H  0.13499946  0.86243162  0.08326319     0.05300
H1244       H  0.16665988  0.86256804  0.05726253     0.08500
H1245       H  0.14643973  0.90957775  0.06871307     0.08500
H1246       H  0.32963684  0.89807920  0.12562076     0.08500
H1247       H  0.29764795  0.90364429  0.15164236     0.08500
H1248       H  0.30601184  0.94576104  0.13274546     0.05200
C1249       C  0.30144420  0.61521393  0.90701372    -0.20600
C1250       C  0.26634514  0.61929209  0.89313601    -0.07100
C1251       C  0.23087368  0.59620591  0.89861427     0.13700
C1252       C  0.23087506  0.57139233  0.91866678    -0.20600
C1253       C  0.26521393  0.56986806  0.93340269    -0.07100
C1254       C  0.30117308  0.59116961  0.92723913     0.13700
C1255       C  0.33863096  0.58987987  0.94261934    -0.24000
H1256       H  0.32824285  0.63362253  0.90310951     0.15000
H1257       H  0.20349137  0.55436352  0.92335456     0.15000
C1258       C  0.19202594  0.59883663  0.88459169    -0.23900
H1259       H  0.36408931  0.60836154  0.93522663     0.05300
H1260       H  0.34900902  0.55818652  0.94400972     0.08500
H1261       H  0.33159981  0.60189144  0.96061837     0.08500
H1262       H  0.18273818  0.56810359  0.87806898     0.08500
H1263       H  0.19533366  0.61859030  0.86897637     0.08500
H1264       H  0.16747576  0.61091697  0.89609069     0.05200
C1265       C  0.27696205  0.82417245  0.92403690    -0.20600
C1266       C  0.24002505  0.81931385  0.91170764    -0.07100
C1267       C  0.20371227  0.83295104  0.92238737     0.13700
C1268       C  0.20554366  0.85357653  0.94431802    -0.20600
C1269       C  0.24304919  0.86250033  0.95533179    -0.07100
C1270       C  0.27901608  0.84629634  0.94555668     0.13700
C1271       C  0.31962925  0.85371760  0.95742161    -0.24000
H1272       H  0.30434300  0.81149274  0.91654321     0.15000
H1273       H  0.17808583  0.86638967  0.95173592     0.15000
C1274       C  0.16310837  0.82709794  0.91028667    -0.23900
H1275       H  0.34466848  0.83902242  0.94750968     0.05300
H1276       H  0.31892555  0.84112411  0.97556150     0.08500
H1277       H  0.32659493  0.88676771  0.95854879     0.08500
H1278       H  0.13799583  0.84074350  0.92070323     0.08500
H1279       H  0.15605518  0.79433893  0.90814557     0.08500
H1280       H  0.16398331  0.84146055  0.89259975     0.05200
C1281       C  0.46290459  0.67983534  0.73749647    -0.20600
C1282       C  0.99340987  0.71510084  0.73578574    -0.07100
C1283       C  0.02746278  0.70621315  0.72033198     0.13700
C1284       C  0.03054001  0.66779163  0.70847871    -0.20600
C1285       C  0.00173681  0.63611837  0.71124888    -0.07100
C1286       C  0.46618365  0.64228275  0.72534720     0.13700
C1287       C  0.43204588  0.61149131  0.72908577    -0.24000
H1288       H  0.43757143  0.68218831  0.74949860     0.15000
H1289       H  0.05662773  0.66209281  0.69721183     0.15000
C1290       C  0.06271828  0.73535588  0.71639633    -0.23900
H1291       H  0.40786648  0.62301815  0.74104241     0.05300
H1292       H  0.44404954  0.58379525  0.73733260     0.08500
H1293       H  0.41708057  0.60392578  0.71189963     0.08500
H1294       H  0.05257480  0.76659012  0.71362868     0.08500
H1295       H  0.08038824  0.72708015  0.70029742     0.08500
H1296       H  0.08420366  0.73388323  0.73145579     0.05200
C1297       C  0.48178889  0.83037616  0.75258701    -0.20600
C1298       C  0.48239596  0.79462102  0.73800763    -0.07100
C1299       C  0.47940332  0.80103002  0.71307389     0.13700
C1300       C  0.48409101  0.84080273  0.70425568    -0.20600
C1301       C  0.48758126  0.87572201  0.71907120    -0.07100
C1302       C  0.48498733  0.87004382  0.74370423     0.13700
C1303       C  0.48676817  0.90533150  0.76094967    -0.24000
H1304       H  0.48117123  0.82722286  0.77157593     0.15000
H1305       H  0.48314905  0.84454714  0.68519554     0.15000
C1306       C  0.46850008  0.76875938  0.69476792    -0.23900
H1307       H  0.48598771  0.89521540  0.77965107     0.05300
H1308       H  0.46017258  0.92500485  0.75825610     0.08500
H1309       H  0.02336345  0.92636831  0.75525299     0.08500
H1310       H  0.45558553  0.74061722  0.70211328     0.08500
H1311       H  0.99770752  0.76400405  0.68302082     0.08500
H1312       H  0.44413477  0.78007334  0.68305848     0.05200
C1313       C  0.06025051  0.78508086  0.76288894    -0.20600
C1314       C  0.02816774  0.75667271  0.76760268    -0.07100
C1315       C  0.03683299  0.72716082  0.78536058     0.13700
C1316       C  0.07406988  0.72946553  0.79815608    -0.20600
C1317       C  0.10435459  0.75894918  0.79339651    -0.07100
C1318       C  0.09782562  0.78542971  0.77450695     0.13700
C1319       C  0.13108928  0.81169347  0.76398744    -0.24000
H1320       H  0.05848507  0.80560025  0.74822347     0.15000
H1321       H  0.07988103  0.70732527  0.81172452     0.15000
C1322       C  0.00825692  0.69274055  0.79186777    -0.23900
H1323       H  0.12033313  0.84313349  0.76231151     0.05300
H1324       H  0.13833763  0.80019871  0.74590461     0.08500
H1325       H  0.15943164  0.81210930  0.77440677     0.08500
H1326       H  0.97824727  0.69408779  0.78340636     0.08500
H1327       H  0.00286741  0.69318000  0.81130597     0.08500
H1328       H  0.02222437  0.66344761  0.78688804     0.05200
C1329       C  0.40771970  0.75092391  0.75172243    -0.20600
C1330       C  0.44376047  0.75265682  0.76587357    -0.07100
C1331       C  0.43669517  0.75822035  0.79093357     0.13700
C1332       C  0.39663162  0.75404425  0.80023276    -0.20600
C1333       C  0.36160936  0.74985088  0.78590237    -0.07100
C1334       C  0.36768262  0.74982397  0.76107596     0.13700
C1335       C  0.33229185  0.74932819  0.74404250    -0.24000
H1336       H  0.41096147  0.74982898  0.73267708     0.15000
H1337       H  0.39267890  0.75600139  0.81930460     0.15000
C1338       C  0.46779896  0.77278352  0.80905573    -0.23900
H1339       H  0.34254613  0.75179015  0.72533314     0.05300
H1340       H  0.31239104  0.77544667  0.74793106     0.08500
H1341       H  0.31453828  0.72048004  0.74555729     0.08500
H1342       H  0.47502463  0.74792882  0.82130730     0.08500
H1343       H  0.45471544  0.79779432  0.81985052     0.08500
H1344       H  0.49582553  0.78635549  0.80179304     0.05200
C1345       C  0.34906692  0.51652757  0.72001751    -0.20600
C1346       C  0.35727309  0.98111812  0.70772617    -0.07100
C1347       C  0.32761625  0.94938495  0.70971227     0.13700
C1348       C  0.29011512  0.95622966  0.72215156    -0.20600
C1349       C  0.28096400  0.49210676  0.73378079    -0.07100
C1350       C  0.31435220  0.52214305  0.73416897     0.13700
C1351       C  0.31875607  0.56050414  0.74934714    -0.24000
H1352       H  0.37180174  0.54074386  0.71963646     0.15000
H1353       H  0.26807129  0.93140793  0.72312753     0.15000
C1354       C  0.33556130  0.90802505  0.69940096    -0.23900
H1355       H  0.35054216  0.57269206  0.75005316     0.05300
H1356       H  0.31258798  0.55557960  0.76823265     0.08500
H1357       H  0.30181801  0.58552246  0.74144028     0.08500
H1358       H  0.36294814  0.89527806  0.70784845     0.08100
H1359       H  0.34054556  0.91022165  0.67998460     0.08500
H1360       H  0.30954187  0.88665427  0.70244589     0.05200
C1361       C  0.12229150  0.49785343  0.73698247    -0.20600
C1362       C  0.11985330  0.49783413  0.71217187    -0.07100
C1363       C  0.15712472  0.49208068  0.69949579     0.13700
C1364       C  0.19481995  0.48902891  0.71174960    -0.20600
C1365       C  0.19784285  0.49160127  0.73675929    -0.07100
C1366       C  0.16180881  0.00794602  0.75168499     0.13700
C1367       C  0.15779132  0.02070237  0.77755475    -0.24000
H1368       H  0.09808923  0.02159147  0.74808946     0.15000
H1369       H  0.22223124  0.48627987  0.70134280     0.15000
C1370       C  0.15812276  0.48907544  0.67285087    -0.23900
H1371       H  0.15415303  0.05406390  0.77888995     0.05300
H1372       H  0.17640671  0.47401382  0.78462904     0.08500
H1373       H  0.13029310  0.00582145  0.78534823     0.08500
H1374       H  0.14792110  0.51783157  0.66502185     0.08500
H1375       H  0.13823615  0.46329143  0.66692742     0.08500
H1376       H  0.18923812  0.48342979  0.66595139     0.05200
C1377       C  0.24714151  0.53388693  0.79043517    -0.20600
C1378       C  0.23937660  0.53223348  0.76562621    -0.07100
C1379       C  0.23114324  0.57083159  0.75483307     0.13700
C1380       C  0.23655372  0.60739147  0.76778616    -0.20600
C1381       C  0.25037336  0.60885062  0.79117564    -0.07100
C1382       C  0.25399725  0.57137595  0.80299220     0.13700
C1383       C  0.26399974  0.57080499  0.82895755    -0.24000
H1384       H  0.24899430  0.50599818  0.80009904     0.15000
H1385       H  0.23134989  0.63593759  0.75906303     0.15000
C1386       C  0.22068758  0.57587923  0.72887729    -0.23900
H1387       H  0.26581950  0.53936107  0.83563133     0.05300
H1388       H  0.23987933  0.58650244  0.83907288     0.08500
H1389       H  0.29381330  0.58639750  0.83219387     0.08500
H1390       H  0.18844661  0.56697194  0.72561603     0.08500
H1391       H  0.24156437  0.55858248  0.71730346     0.08500
H1392       H  0.22365251  0.60792998  0.72320565     0.05200
C1393       C  0.20609398  0.93356513  0.77670975    -0.20600
C1394       C  0.24330908  0.95209594  0.76909349    -0.07100
C1395       C  0.27868457  0.92852401  0.77452502     0.13700
C1396       C  0.27459792  0.88728096  0.78201810    -0.20600
C1397       C  0.23675900  0.86980568  0.78854075    -0.07100
C1398       C  0.20312382  0.89591875  0.78815259     0.13700
C1399       C  0.16377607  0.88706431  0.80112713    -0.24000
H1400       H  0.17758277  0.94774211  0.77441056     0.15000
H1401       H  0.30178210  0.86981239  0.78477635     0.15000
C1402       C  0.32136923  0.94610281  0.77506788    -0.23900
H1403       H  0.13743392  0.89009044  0.78908162     0.05300
H1404       H  0.16035633  0.90974380  0.81569136     0.08500
H1405       H  0.16244353  0.85679758  0.80910771     0.08500
H1406       H  0.32208837  0.97939526  0.77379879     0.08500
H1407       H  0.34000240  0.93232413  0.76076228     0.08500
H1408       H  0.33567740  0.93938596  0.79237679     0.05200
C1409       C  0.11543268  0.74809653  0.05326772    -0.20600
C1410       C  0.07523029  0.73474873  0.05666908    -0.07100
C1411       C  0.06367378  0.71954862  0.07925161     0.13700
C1412       C  0.09160345  0.72201941  0.09829922    -0.20600
C1413       C  0.13087827  0.73868049  0.09518166    -0.07100
C1414       C  0.14346263  0.74992889  0.07190919     0.13700
C1415       C  0.18657202  0.76374605  0.06608557    -0.24000
H1416       H  0.12454807  0.75906473  0.03597566     0.15000
H1417       H  0.08223333  0.71204180  0.11574388     0.15000
C1418       C  0.02216817  0.70093552  0.08386953    -0.23900
H1419       H  0.19103278  0.76796975  0.04674060     0.05300
H1420       H  0.20842204  0.74057901  0.07171040     0.08500
H1421       H  0.19404842  0.79339171  0.07466394     0.08500
H1422       H  0.02561083  0.66978604  0.09071508     0.08500
H1423       H  0.00317176  0.69858572  0.06764944     0.08500
H1424       H  0.00591915  0.71941576  0.09734679     0.05200
C1425       C  0.37845990  0.73809614  0.06924788    -0.20600
C1426       C  0.37688416  0.76952695  0.05277974    -0.07100
C1427       C  0.35010494  0.80189382  0.05701969     0.13700
C1428       C  0.32441316  0.80093696  0.07709150    -0.20600
C1429       C  0.32729862  0.77013704  0.09404049    -0.07100
C1430       C  0.35620895  0.73921340  0.09041152     0.13700
C1431       C  0.36416410  0.70693571  0.10852314    -0.24000
H1432       H  0.39955451  0.71368076  0.06617825     0.15000
H1433       H  0.30341542  0.82542252  0.08016786     0.15000
C1434       C  0.35043969  0.83852360  0.04135060    -0.23900
H1435       H  0.38617029  0.68426279  0.10190504     0.05300
H1436       H  0.33561010  0.69029164  0.11311813     0.08500
H1437       H  0.37750306  0.72113896  0.12477559     0.08500
H1438       H  0.34034128  0.82986816  0.02319782     0.08500
H1439       H  0.38171902  0.85194722  0.04057577     0.08500
H1440       H  0.32986522  0.86228678  0.04821694     0.05200
C1441       C  0.12295294  0.72212346  0.93518303    -0.20600
C1442       C  0.08117050  0.72538310  0.93132269    -0.07100
C1443       C  0.06590399  0.71609774  0.90814428     0.13700
C1444       C  0.09334566  0.71315357  0.88897790    -0.20600
C1445       C  0.13541903  0.71206688  0.89291141    -0.07100
C1446       C  0.14925192  0.71147791  0.91677446     0.13700
C1447       C  0.19088670  0.69853908  0.92374580    -0.24000
H1448       H  0.13548657  0.72768909  0.95272148     0.15000
H1449       H  0.08185289  0.71166727  0.87096609     0.15000
C1450       C  0.02123355  0.70914335  0.90302925    -0.23900
H1451       H  0.18909169  0.68008320  0.94006961     0.05300
H1452       H  0.21117801  0.72514814  0.92742340     0.08500
H1453       H  0.20273565  0.67795596  0.91009608     0.08500
H1454       H  0.01021139  0.73260066  0.89078454     0.08500
H1455       H  0.00251940  0.70946012  0.91936546     0.08500
H1456       H  0.01664036  0.67884959  0.89450101     0.05200
C1457       C  0.39052450  0.79250205  0.91022162    -0.20600
C1458       C  0.40254150  0.76328480  0.92637312    -0.07100
C1459       C  0.40138941  0.72177568  0.91949765     0.13700
C1460       C  0.38532670  0.71037447  0.89728056    -0.20600
C1461       C  0.36974821  0.73939191  0.88207050    -0.07100
C1462       C  0.37467230  0.78112186  0.88802973     0.13700
C1463       C  0.36301457  0.81433739  0.87137517    -0.24000
H1464       H  0.39395874  0.82440715  0.91485492     0.15000
H1465       H  0.38185381  0.67851635  0.89265038     0.15000
C1466       C  0.41599073  0.68928964  0.93581624    -0.23900
H1467       H  0.38971716  0.83491951  0.86850513     0.05300
H1468       H  0.33783963  0.83213434  0.87916833     0.08500
H1469       H  0.35339519  0.80244215  0.85372850     0.08500
H1470       H  0.39659993  0.68822434  0.95192287     0.08500
H1471       H  0.44797512  0.69551678  0.94116311     0.08500
H1472       H  0.41478482  0.65890927  0.92711312     0.05200
C1473       C  0.36731096  0.99973559  0.26605887    -0.20600
C1474       C  0.36731307  0.99745665  0.29073404    -0.07100
C1475       C  0.33053464  0.00678160  0.30276376     0.13700
C1476       C  0.29396813  0.01178049  0.28959393    -0.20600
C1477       C  0.29259974  0.00571015  0.26461362    -0.07100
C1478       C  0.33165106  0.00401125  0.25287402     0.13700
C1479       C  0.33588261  0.50649397  0.22593393    -0.24000
H1480       H  0.39571906  0.99591255  0.25657575     0.15000
H1481       H  0.26637795  0.01870837  0.29911704     0.15000
C1482       C  0.32964652  0.01222513  0.32929931    -0.23900
H1483       H  0.36849654  0.50545527  0.22072571     0.05300
H1484       H  0.32501942  0.53503648  0.21843887     0.08500
H1485       H  0.32262508  0.97797813  0.21781277     0.08500
H1486       H  0.34824360  0.53111002  0.33605902     0.08500
H1487       H  0.33653611  0.98322944  0.33803983     0.08500
H1488       H  0.29926775  0.02193228  0.33564252     0.05200
C1489       C  0.13327467  0.52069566  0.26823513    -0.20600
C1490       C  0.12904890  0.50227256  0.29016006    -0.07100
C1491       C  0.16462814  0.97779469  0.29783684     0.13700
C1492       C  0.20201578  0.97838169  0.28479851    -0.20600
C1493       C  0.20608631  0.50125923  0.26357472    -0.07100
C1494       C  0.16925627  0.51992977  0.25459580     0.13700
C1495       C  0.16369785  0.53871698  0.23040448    -0.24000
H1496       H  0.10718613  0.53653163  0.26146079     0.15000
H1497       H  0.22629924  0.95985910  0.29102280     0.15000
C1498       C  0.16070940  0.95140408  0.31931630    -0.23900
H1499       H  0.13116761  0.54326614  0.22589076     0.05300
H1500       H  0.17451216  0.51897863  0.21606307     0.08500
H1501       H  0.17757206  0.56944954  0.22980298     0.08500
H1502       H  0.13503396  0.92929024  0.31681079     0.08500
H1503       H  0.15504303  0.97039995  0.33532821     0.08500
H1504       H  0.18883167  0.93408652  0.32243936     0.05200
C1505       C  0.25073533  0.57714268  0.24784669    -0.20600
C1506       C  0.25038723  0.54030010  0.23412988    -0.07100
C1507       C  0.25003554  0.54536011  0.20879109     0.13700
C1508       C  0.24790937  0.58507681  0.19925986    -0.20600
C1509       C  0.24596192  0.62092097  0.21334347    -0.07100
C1510       C  0.24853680  0.61632272  0.23812602     0.13700
C1511       C  0.24862474  0.65243228  0.25476783    -0.24000
H1512       H  0.25096091  0.57513869  0.26699148     0.15000
H1513       H  0.24620100  0.58792570  0.18017823     0.15000
C1514       C  0.24945761  0.51093019  0.19079177    -0.23900
H1515       H  0.25254883  0.64351759  0.27353319     0.05300
H1516       H  0.21925253  0.66834448  0.25349637     0.08500
H1517       H  0.27421997  0.67340522  0.25020910     0.08500
H1518       H  0.21844088  0.49768663  0.18878511     0.08500
H1519       H  0.27115488  0.48715479  0.19494431     0.08500
H1520       H  0.25831943  0.52176148  0.17291572     0.05200
C1521       C  0.22249311  0.94242388  0.22173438    -0.20600
C1522       C  0.25270427  0.95553480  0.23815331    -0.07100
C1523       C  0.28084079  0.92379917  0.24435577     0.13700
C1524       C  0.28619458  0.88971284  0.22930328    -0.20600
C1525       C  0.25780245  0.87862068  0.21196544    -0.07100
C1526       C  0.22409983  0.90479721  0.20908144     0.13700
C1527       C  0.18973655  0.89420678  0.19232542    -0.24000
H1528       H  0.19731338  0.96180727  0.21842968     0.15000
H1529       H  0.30958434  0.86814857  0.23353432     0.15000
C1530       C  0.30013673  0.91829579  0.26841756    -0.23900
H1531       H  0.16587186  0.91761176  0.19258071     0.05300
H1532       H  0.17479392  0.86507137  0.19728554     0.08500
H1533       H  0.20157300  0.89246345  0.17403027     0.08500
H1534       H  0.28648927  0.93646574  0.28260761     0.08500
H1535       H  0.33358935  0.92328673  0.26742001     0.08500
H1536       H  0.29471752  0.88663866  0.27438675     0.05200
C1537       C  0.75029262  0.99361194  0.24970990    -0.02800
N1538       N  0.56316032  0.25341595  0.00685110    -0.36900
N1539       N  0.98621605  0.19240800  0.96150233    -0.57400
N1540       N  0.92141752  0.18391740  0.99714874    -0.36900
N1541       N  0.98113937  0.19111224  0.03412741    -0.57400
C1542       C  0.58950235  0.25638147  0.98822486     0.26700
C1543       C  0.58329815  0.26493777  0.02698572     0.26700
C1544       C  0.90039377  0.17373488  0.97732655     0.26700
C1545       C  0.89759453  0.17444802  0.01595095     0.26700
C1546       C  0.54151902  0.23241594  0.95613907     0.35300
C1547       C  0.95302109  0.19543848  0.94772654     0.35300
C1548       C  0.52366304  0.27427609  0.05410835     0.35300
C1549       C  0.94689813  0.19578837  0.04724277     0.35300
C1550       C  0.62722167  0.26944277  0.99681885    -0.22200
C1551       C  0.62350182  0.27404588  0.02126129    -0.22200
C1552       C  0.86263009  0.15736485  0.98348343    -0.22200
C1553       C  0.86096717  0.15760418  0.00798412    -0.22200
C1554       C  0.53360637  0.21627446  0.93367521    -0.23200
C1555       C  0.96384281  0.21068763  0.92565019    -0.23200
C1556       C  0.50681963  0.28346522  0.07604487    -0.23200
C1557       C  0.95669903  0.21184081  0.06941010    -0.23200
C1558       C  0.58050138  0.24602771  0.96395256    -0.18600
C1559       C  0.56582592  0.26849401  0.05018027    -0.18600
C1560       C  0.90686640  0.18508122  0.03975213    -0.18600
C1561       C  0.91307658  0.18328762  0.95412471    -0.18600
H1562       H  0.65472425  0.27457200  0.98659000     0.14300
H1563       H  0.64725899  0.28443555  0.03331796     0.14300
H1564       H  0.83845125  0.14744259  0.97157902     0.14300
H1565       H  0.83529930  0.14797003  0.01872397     0.14300
H1566       H  0.55540119  0.20754696  0.92022251     0.12600
H1567       H  0.94480704  0.21568438  0.91039416     0.12600
H1568       H  0.52214762  0.28733249  0.09291183     0.12600
H1569       H  0.93636306  0.21958817  0.08379949     0.12600
H1570       H  0.53384167  0.24118396  0.00630123     0.25900
H1571       H  0.94730630  0.20176868  0.99761690     0.25900
C1572       C  0.74228695  0.99951364  0.74960973    -0.02800
C1573       C  0.99206146  0.25452667  0.75272135    -0.02800
N1574       N  0.72090926  0.05423035  0.99493432    -0.36900
N1575       N  0.72150991  0.00375814  0.03821373    -0.57400
N1576       N  0.80506665  0.43554884  0.00342321    -0.36900
N1577       N  0.72830691  0.98120862  0.96751428    -0.57400
C1578       C  0.73243004  0.08163734  0.01172792     0.26700
C1579       C  0.73127606  0.06972063  0.97365091     0.26700
C1580       C  0.79264110  0.42150034  0.02463322     0.26700
C1581       C  0.78737673  0.41189177  0.98648281     0.26700
C1582       C  0.71115023  0.04070707  0.04641258     0.35300
C1583       C  0.82074370  0.47822765  0.04858870     0.35300
C1584       C  0.72126225  0.00730321  0.94967765     0.35300
C1585       C  0.81113445  0.45273201  0.95296945     0.35300
C1586       C  0.74990071  0.11539329  0.00093701    -0.22200
C1587       C  0.74858542  0.10808993  0.97681916    -0.22200
C1588       C  0.76739614  0.38763997  0.02124311    -0.22200
C1589       C  0.76369812  0.38180282  0.99701505    -0.22200
C1590       C  0.69385575  0.03737049  0.06880638    -0.23200
C1591       C  0.83749904  0.49583556  0.06885064    -0.23200
C1592       C  0.71596303  0.98655025  0.92844642    -0.23200
C1593       C  0.82501239  0.45800689  0.92993696    -0.23200
C1594       C  0.72535487  0.07741693  0.03631716    -0.18600
C1595       C  0.72542982  0.04976070  0.95159086    -0.18600
C1596       C  0.79464079  0.41629400  0.96196903    -0.18600
C1597       C  0.80501896  0.43835784  0.04668174    -0.18600
H1598       H  0.76196616  0.14265320  0.00944867     0.14300
H1599       H  0.75986913  0.12830398  0.96323707     0.14300
H1600       H  0.75296699  0.36928058  0.03475004     0.14300
H1601       H  0.74607504  0.35794518  0.98820974     0.14300
H1602       H  0.68385058  0.06180781  0.08027759     0.12600
H1603       H  0.84491363  0.48098611  0.08523980     0.12600
H1604       H  0.71131978  0.99905940  0.91103559     0.12600
H1605       H  0.83075244  0.43464644  0.91675077     0.12600
H1606       H  0.70359684  0.02760113  0.99779796     0.25900
H1607       H  0.82750306  0.45789717  0.00068794     0.25900
O1608       O  0.80173456  0.23963401  0.86947076    -0.80400
O1609       O  0.73287500  0.30551849  0.78548723    -0.80400
O1610       O  0.82530672  0.24441365  0.82129015    -0.80400
O1611       O  0.75497481  0.32182648  0.86400929    -0.80400
O1612       O  0.79350817  0.24444237  0.78692000    -0.80500
O1613       O  0.73894014  0.27295592  0.88806034    -0.80400
O1614       O  0.74928199  0.33792617  0.81821957    -0.80400
O1615       O  0.82679884  0.18839017  0.85227092    -0.80400
C1616       C  0.82790167  0.21197146  0.86935699     1.09300
C1617       C  0.74343045  0.33852967  0.79633855     1.09200
C1618       C  0.82649929  0.24820127  0.79902172     1.09300
C1619       C  0.75130276  0.30872585  0.88479265     1.09200
O1620       O  0.68157965  0.22240249  0.86443845    -0.80400
O1621       O  0.72600577  0.18382704  0.79795894    -0.80500
O1622       O  0.75266848  0.16338374  0.85462074    -0.80400
O1623       O  0.66508882  0.30171832  0.81634359    -0.80400
O1624       O  0.67326668  0.24220322  0.79912634    -0.80400
O1625       O  0.74342116  0.19327048  0.88958184    -0.80400
O1626       O  0.67365606  0.28797008  0.86498434    -0.80400
O1627       O  0.78679394  0.16793387  0.80792661    -0.80400
Co1628     Co  0.74159211  0.22884246  0.86396322     1.51500
Co1629     Co  0.73253803  0.24479982  0.79540167     1.51700
Co1630     Co  0.78214706  0.20716748  0.83326321     1.51600
Co1631     Co  0.71290399  0.30838101  0.83999421     1.51500
O1632       O  0.74122365  0.25440512  0.83196167    -1.42300
C1633       C  0.66409597  0.25326689  0.87301897     1.09200
C1634       C  0.75364413  0.15775427  0.79899547     1.09300
C1635       C  0.74434260  0.16134215  0.87710133     1.09200
C1636       C  0.65108847  0.27158742  0.80405344     1.09200
O1637       O  0.73083535  0.30813288  0.19841213    -0.80400
O1638       O  0.67555571  0.27817065  0.14868334    -0.80400
O1639       O  0.78865270  0.31599466  0.13844984    -0.80400
O1640       O  0.66940814  0.18588022  0.18910938    -0.80400
O1641       O  0.73027196  0.31367314  0.11746202    -0.80500
O1642       O  0.67715035  0.24919662  0.19732646    -0.80400
O1643       O  0.66362191  0.21313752  0.14317872    -0.80400
O1644       O  0.79415512  0.31680675  0.18759861    -0.80400
C1645       C  0.76132701  0.33131582  0.19619463     1.09300
C1646       C  0.65340811  0.24988666  0.13974496     1.09200
C1647       C  0.76444594  0.33090369  0.12241965     1.09300
C1648       C  0.65472918  0.21803241  0.19765541     1.09200
O1649       O  0.73889996  0.18827703  0.21258407    -0.80400
O1650       O  0.77951874  0.25402893  0.11693576    -0.80500
O1651       O  0.82524410  0.23110144  0.18536316    -0.80400
O1652       O  0.74078630  0.17694500  0.13229583    -0.80400
O1653       O  0.71596050  0.22802922  0.11308437    -0.80400
O1654       O  0.79559593  0.25471229  0.21626496    -0.80400
O1655       O  0.74972076  0.15566317  0.17888071    -0.80400
O1656       O  0.82185965  0.22848741  0.14048829    -0.80400
Co1657     Co  0.73612261  0.24920975  0.20343038     1.51500
Co1658     Co  0.73202083  0.27021299  0.13829328     1.51700
Co1659     Co  0.80271186  0.26982232  0.16339227     1.51600
Co1660     Co  0.70947556  0.18653245  0.16130278     1.51500
O1661       O  0.74561814  0.23905741  0.16725360    -1.42300
C1662       C  0.74847649  0.15554030  0.20127295     1.09200
C1663       C  0.81003932  0.23268342  0.11983836     1.09300
C1664       C  0.82787419  0.24126858  0.20660989     1.09200
C1665       C  0.72924125  0.19198944  0.11297705     1.09200
O1666       O  0.47937873  0.06847033  0.70089386    -0.80400
O1667       O  0.94156737  0.03411446  0.63948748    -0.80400
O1668       O  0.50385983  0.08357099  0.64065742    -0.80400
O1669       O  0.91407860  0.44816431  0.68646247    -0.80400
O1670       O  0.99756047  0.05223773  0.61132717    -0.80500
O1671       O  0.92682681  0.01289324  0.70122581    -0.80400
O1672       O  0.92103197  0.46305306  0.63874480    -0.80400
O1673       O  0.53909426  0.08485462  0.68768735    -0.80400
C1674       C  0.50821544  0.09406088  0.70021782     1.09300
C1675       C  0.91163285  0.49916039  0.63379744     1.09200
C1676       C  0.49680747  0.07986453  0.61795994     1.09300
C1677       C  0.90107794  0.47960418  0.69716333     1.09200
O1678       O  0.48172359  0.44895001  0.71654634    -0.80400
O1679       O  0.55263339  0.01067225  0.62996256    -0.80500
O1680       O  0.57544802  0.00696166  0.67868795    -0.80400
O1681       O  0.00252073  0.42733627  0.63878596    -0.80400
O1682       O  0.98326978  0.47430819  0.61522877    -0.80400
O1683       O  0.54586792  0.01195304  0.71371182    -0.80400
O1684       O  0.99625713  0.41458884  0.68499623    -0.80400
O1685       O  0.58190524  0.06583012  0.64526742    -0.80400
Co1686     Co  0.48420980  0.00936362  0.70633644     1.51500
Co1687     Co  0.99664185  0.01410662  0.63542531     1.51700
Co1688     Co  0.53661446  0.04088927  0.66138078     1.51600
Co1689     Co  0.96131644  0.44259122  0.66290282     1.51500
O1690       O  0.49197846  0.99775941  0.67100001    -1.42300
C1691       C  0.99228387  0.41702371  0.70704659     1.09200
C1692       C  0.58104703  0.03832819  0.62923814     1.09300
C1693       C  0.57805691  0.00668689  0.70101963     1.09200
C1694       C  0.99918499  0.44064490  0.61814953     1.09200
O1695       O  0.55810277  0.00593304  0.28887703    -0.80400
O1696       O  0.00141588  0.45725829  0.38107218    -0.80400
O1697       O  0.58657009  0.05661897  0.35707741    -0.80400
O1698       O  0.95712553  0.41344043  0.30799247    -0.80400
O1699       O  0.57024596  0.50281022  0.36685127    -0.80500
O1700       O  0.51044017  0.43605932  0.28748590    -0.80400
O1701       O  0.99309008  0.41303545  0.35193515    -0.80400
O1702       O  0.58401670  0.99711028  0.32370048    -0.80400
C1703       C  0.58877275  0.99908241  0.30161384     1.09300
C1704       C  0.00506768  0.42184397  0.37262327     1.09200
C1705       C  0.59107470  0.02777708  0.37141742     1.09300
C1706       C  0.98719482  0.40827561  0.29453693     1.09200
O1707       O  0.93850886  0.98981052  0.29141765    -0.80400
O1708       O  0.01437088  0.03210539  0.39550508    -0.80500
O1709       O  0.53954031  0.07444701  0.31698787    -0.80400
O1710       O  0.92856029  0.46085754  0.36918134    -0.80400
O1711       O  0.94513840  0.52291366  0.36628999    -0.80400
O1712       O  0.48623148  0.05289288  0.29669055    -0.80400
O1713       O  0.90582746  0.47818986  0.32324539    -0.80400
O1714       O  0.50752445  0.06824920  0.36454818    -0.80400
Co1715     Co  0.49849095  0.99415983  0.29370851     1.51500
Co1716     Co  0.00432701  0.51017011  0.36464037     1.51700
Co1717     Co  0.54159790  0.02938199  0.34154975     1.51600
Co1718     Co  0.95099128  0.44654612  0.33734209     1.51500
O1719       O  0.49846188  0.49149783  0.32910479    -1.42300
C1720       C  0.90453624  0.48794007  0.30163865     1.09200
C1721       C  0.50657480  0.06255704  0.38744216     1.09300
C1722       C  0.51033158  0.08166840  0.30279041     1.09200
C1723       C  0.92426046  0.49635837  0.37652210     1.09200
N1724       N  0.02436814  0.21037159  0.50257040    -0.36900
N1725       N  0.04448817  0.27496841  0.53405546    -0.57400
N1726       N  0.06025048  0.33196039  0.49552307    -0.36900
N1727       N  0.04062752  0.26370235  0.46426469    -0.57400
C1728       C  0.00937789  0.19599644  0.52319292     0.26700
C1729       C  0.00509246  0.19040399  0.48459437     0.26700
C1730       C  0.04834295  0.35633161  0.51356826     0.26700
C1731       C  0.04967310  0.34981363  0.47508917     0.26700
C1732       C  0.04640959  0.24410558  0.54938786     0.35300
C1733       C  0.06173932  0.30756804  0.54484984     0.35300
C1734       C  0.03948339  0.22777696  0.45270044     0.35300
C1735       C  0.05920870  0.29016191  0.44967730     0.35300
C1736       C  0.98014530  0.16601292  0.51833571    -0.22200
C1737       C  0.97735923  0.16254227  0.49390284    -0.22200
C1738       C  0.03096614  0.39083275  0.50447787    -0.22200
C1739       C  0.03255608  0.38706532  0.48006025    -0.22200
C1740       C  0.06659747  0.25664431  0.56986742    -0.23200
C1741       C  0.07567103  0.29724937  0.56714362    -0.23200
C1742       C  0.05924250  0.23085779  0.43103214    -0.23200
C1743       C  0.07102895  0.27078269  0.42891352    -0.23200
C1744       C  0.02463985  0.20721429  0.54597092    -0.18600
C1745       C  0.01551490  0.19458757  0.46029810    -0.18600
C1746       C  0.05430394  0.33196426  0.45238276    -0.18600
C1747       C  0.05291161  0.34710453  0.53780217    -0.18600
H1748       H  0.96316202  0.14808277  0.53105048     0.14300
H1749       H  0.95791498  0.14132853  0.48414153     0.14300
H1750       H  0.01794342  0.41578338  0.51434846     0.14300
H1751       H  0.02094554  0.40845229  0.46747914     0.14300
H1752       H  0.07162360  0.23928946  0.58570051     0.12600
H1753       H  0.08813982  0.31762495  0.58062246     0.12600
H1754       H  0.06267853  0.20749649  0.41756400     0.12600
H1755       H  0.08442571  0.28445133  0.41333503     0.12600
H1756       H  0.05053593  0.22869064  0.50090546     0.25900
H1757       H  0.07588679  0.30479121  0.49702583     0.25900
N1758       N  0.69244611  0.04756566  0.50137723    -0.36900
N1759       N  0.75886221  0.04292870  0.46688446    -0.57400
N1760       N  0.81980577  0.04224838  0.50399863    -0.36900
N1761       N  0.75319148  0.04481962  0.53837170    -0.57400
C1762       C  0.67089498  0.03855331  0.48149497     0.26700
C1763       C  0.66797214  0.04076783  0.52034090     0.26700
C1764       C  0.84245344  0.03051072  0.48516444     0.26700
C1765       C  0.83910028  0.03038727  0.52382122     0.26700
C1766       C  0.72722871  0.04911722  0.45214137     0.35300
C1767       C  0.79306445  0.04747506  0.45369307     0.35300
C1768       C  0.72019909  0.05381246  0.55160829     0.35300
C1769       C  0.78570094  0.04987670  0.55282110     0.35300
C1770       C  0.63147410  0.02708537  0.48785916    -0.22200
C1771       C  0.62964458  0.02847483  0.51239864    -0.22200
C1772       C  0.87740861  0.01210153  0.49312321    -0.22200
C1773       C  0.87522900  0.01192316  0.51758447    -0.22200
C1774       C  0.74158042  0.05786324  0.42956718    -0.23200
C1775       C  0.78313861  0.05698118  0.43059245    -0.23200
C1776       C  0.73194401  0.06508456  0.57443011    -0.23200
C1777       C  0.77340392  0.06263343  0.57517876    -0.23200
C1778       C  0.68566771  0.04222010  0.45788904    -0.18600
C1779       C  0.67944607  0.04681747  0.54444470    -0.18600
C1780       C  0.82535052  0.03718329  0.54729911    -0.18600
C1781       C  0.83245569  0.03685901  0.46111025    -0.18600
H1782       H  0.60663011  0.01867227  0.47606595     0.14300
H1783       H  0.60314220  0.02150156  0.52313803     0.14300
H1784       H  0.90176765  0.99985330  0.48243255     0.14300
H1785       H  0.89764773  0.99964658  0.52942093     0.14300
H1786       H  0.72410270  0.06293364  0.41367534     0.12600
H1787       H  0.80359717  0.06108886  0.41571805     0.12600
H1788       H  0.71259558  0.07283529  0.58929476     0.12600
H1789       H  0.79222342  0.06804018  0.59069927     0.12600
H1790       H  0.72149662  0.06128973  0.50187098     0.25900
H1791       H  0.79404369  0.06046628  0.50344144     0.25900
C1792       C  0.99701135  0.24281706  0.24937153    -0.02800
C1793       C  0.99226801  0.29171851  0.28631203    -0.20600
C1794       C  0.99332468  0.28656415  0.26141781    -0.07100
C1795       C  0.48476990  0.31945858  0.24737476     0.13700
C1796       C  0.48597320  0.35858799  0.25810845    -0.20600
C1797       C  0.99214075  0.36646199  0.28374201    -0.07100
C1798       C  0.99251139  0.33056653  0.29746850     0.13700
C1799       C  0.99407888  0.33280532  0.32410282    -0.24000
H1800       H  0.99122627  0.26522546  0.29737004     0.15000
H1801       H  0.48152285  0.38514201  0.24736155     0.15000
C1802       C  0.47725432  0.31821029  0.22088497    -0.23900
H1803       H  0.99598625  0.30228284  0.33207034     0.05300
H1804       H  0.96611076  0.34701281  0.33109198     0.08500
H1805       H  0.02153597  0.35061799  0.32974453     0.08500
H1806       H  0.44614500  0.30634748  0.21703781     0.08500
H1807       H  0.50027048  0.30000933  0.21152309     0.08500
H1808       H  0.47897804  0.34893451  0.21307299     0.05200
C1809       C  0.97193679  0.17101892  0.26377760    -0.20600
C1810       C  0.49720130  0.20199959  0.26821383    -0.07100
C1811       C  0.53213662  0.19238142  0.28246134     0.13700
C1812       C  0.53519471  0.15397342  0.29369447    -0.20600
C1813       C  0.50431570  0.12368878  0.29231928    -0.07100
C1814       C  0.97469471  0.13341693  0.27524995     0.13700
C1815       C  0.94328978  0.10093618  0.26852420    -0.24000
H1816       H  0.94821852  0.17212548  0.25068547     0.15000
H1817       H  0.56277348  0.14742003  0.30336343     0.15000
C1818       C  0.56831162  0.22050956  0.28588119    -0.23900
H1819       H  0.92072091  0.11152454  0.25544486     0.05300
H1820       H  0.92574218  0.09145128  0.28441954     0.08500
H1821       H  0.95851103  0.07454961  0.26020006     0.08500
H1822       H  0.56383305  0.25035948  0.27829922     0.08500
H1823       H  0.59570514  0.20700696  0.27761627     0.08500
H1824       H  0.57398180  0.22538099  0.30512710     0.05200
C1825       C  0.51201529  0.11873269  0.44666973    -0.20600
C1826       C  0.49297010  0.15480054  0.44152808    -0.07100
C1827       C  0.98914501  0.16797010  0.42003072     0.13700
C1828       C  0.99187542  0.13750904  0.40237630    -0.20600
C1829       C  0.50099132  0.09412545  0.40614251    -0.07100
C1830       C  0.51488559  0.08768594  0.42983875     0.13700
C1831       C  0.53305089  0.04856390  0.43822278    -0.24000
H1832       H  0.52558399  0.11520361  0.46403147     0.15000
H1833       H  0.98071316  0.14318084  0.38467309     0.15000
C1834       C  0.96850272  0.20676127  0.41376902    -0.23900
H1835       H  0.54363802  0.05069269  0.45690496     0.05300
H1836       H  0.55970390  0.04051028  0.42732467     0.08500
H1837       H  0.50971682  0.02372877  0.43744141     0.08500
H1838       H  0.98579100  0.22234485  0.39948874     0.08500
H1839       H  0.96589304  0.22773207  0.42918976     0.08500
H1840       H  0.93713769  0.19967695  0.40736675     0.05200
C1841       C  0.98907939  0.37324672  0.40346188    -0.20600
C1842       C  0.01866716  0.39069495  0.38875465    -0.07100
C1843       C  0.55621211  0.38314353  0.39535176     0.13700
C1844       C  0.56266491  0.36434628  0.41707843    -0.20600
C1845       C  0.04164159  0.35366634  0.43096084    -0.07100
C1846       C  0.00009404  0.35386326  0.42429138     0.13700
C1847       C  0.96731243  0.33381491  0.43910408    -0.24000
H1848       H  0.95714707  0.37627441  0.39909307     0.15000
H1849       H  0.59344826  0.35961319  0.42326693     0.15000
C1850       C  0.59182921  0.39569810  0.38015332    -0.23900
H1851       H  0.93666684  0.33667865  0.43102424     0.05300
H1852       H  0.96642805  0.34796272  0.45703212     0.08500
H1853       H  0.97340781  0.30101698  0.44072346     0.08500
H1854       H  0.59034367  0.42835150  0.37620890     0.08500
H1855       H  0.59061668  0.37840036  0.36313157     0.08500
H1856       H  0.62139101  0.38983873  0.38891513     0.05200
C1857       C  0.64500015  0.07262833  0.42594575    -0.20600
C1858       C  0.65720921  0.03753141  0.43742350    -0.07100
C1859       C  0.65476148  0.50686747  0.42360832     0.13700
C1860       C  0.63500328  0.50497318  0.40149396    -0.20600
C1861       C  0.61772388  0.03222548  0.39271371    -0.07100
C1862       C  0.62606309  0.07070968  0.40362254     0.13700
C1863       C  0.61442530  0.11011062  0.39241991    -0.24000
H1864       H  0.65206506  0.10187207  0.43412749     0.15000
H1865       H  0.63101553  0.47594517  0.39266995     0.15000
C1866       C  0.67156356  0.46871608  0.43384184    -0.23900
H1867       H  0.62292932  0.13678215  0.40373898     0.05300
H1868       H  0.58102938  0.11082766  0.38967495     0.08500
H1869       H  0.63043970  0.11362119  0.37520731     0.08500
H1870       H  0.65750231  0.46298107  0.45141431     0.08500
H1871       H  0.70511631  0.47200281  0.43592790     0.08500
H1872       H  0.66522169  0.44185183  0.42222555     0.05200
C1873       C  0.90592641  0.54398601  0.40946872    -0.20600
C1874       C  0.90083431  0.50549060  0.39861700    -0.07100
C1875       C  0.87562189  0.47605821  0.41001842     0.13700
C1876       C  0.85655290  0.48607296  0.43153923    -0.20600
C1877       C  0.86169273  0.52448063  0.44212563    -0.07100
C1878       C  0.88715649  0.55367528  0.43113203     0.13700
C1879       C  0.89410498  0.59563857  0.44144025    -0.24000
H1880       H  0.92448308  0.56702158  0.40096621     0.15000
H1881       H  0.83847930  0.96515041  0.44049580     0.15000
C1882       C  0.86714268  0.43445446  0.39947606    -0.23900
H1883       H  0.92721349  0.60098889  0.44444887     0.05300
H1884       H  0.87379843  0.10379453  0.45659915     0.08500
H1885       H  0.88303999  0.61852076  0.42883764     0.08500
H1886       H  0.90036582  0.91750119  0.40102965     0.08500
H1887       H  0.85433296  0.43722862  0.38136752     0.08500
H1888       H  0.84916756  0.91680864  0.41169243     0.05200
C1889       C  0.64380837  0.50738376  0.57435609    -0.20600
C1890       C  0.64907082  0.04319693  0.56406296    -0.07100
C1891       C  0.62970813  0.07778340  0.57331476     0.13700
C1892       C  0.61079798  0.07599849  0.59567660    -0.20600
C1893       C  0.60901123  0.03983189  0.60860548    -0.07100
C1894       C  0.62467572  0.50421420  0.59661527     0.13700
C1895       C  0.62475334  0.46359718  0.60857011    -0.24000
H1896       H  0.65764766  0.48078497  0.56652029     0.15000
H1897       H  0.59538501  0.10246084  0.60253562     0.15000
C1898       C  0.62962962  0.11672184  0.55969721    -0.23900
H1899       H  0.60901785  0.44038858  0.59731639     0.05300
H1900       H  0.61008476  0.46405279  0.62625777     0.08500
H1901       H  0.65672979  0.45416243  0.61107173     0.08500
H1902       H  0.61457213  0.11136811  0.54228008     0.08500
H1903       H  0.66139708  0.12777008  0.55677571     0.08500
H1904       H  0.61288601  0.14083874  0.56931433     0.05200
C1905       C  0.89987691  0.04910420  0.59813590    -0.20600
C1906       C  0.88577181  0.50733869  0.61272123    -0.07100
C1907       C  0.85846628  0.47811383  0.60255949     0.13700
C1908       C  0.84084493  0.48563845  0.58035733    -0.20600
C1909       C  0.85007612  0.52124751  0.56789065    -0.07100
C1910       C  0.88148472  0.05561804  0.57617855     0.13700
C1911       C  0.89339049  0.09263164  0.56218691    -0.24000
H1912       H  0.92248525  0.07105621  0.60436832     0.15000
H1913       H  0.81878239  0.46414836  0.57288425     0.15000
C1914       C  0.84623252  0.43986403  0.61531012    -0.23900
H1915       H  0.91717998  0.11141631  0.57139897     0.05300
H1916       H  0.86634592  0.11169606  0.55947797     0.08500
H1917       H  0.90579792  0.08325707  0.54468631     0.08500
H1918       H  0.83466105  0.44758930  0.63328756     0.08500
H1919       H  0.87249980  0.41951668  0.61675734     0.08500
H1920       H  0.82174927  0.42266111  0.60571685     0.05200
C1921       C  0.51546471  0.13298562  0.55958824    -0.20600
C1922       C  0.50147515  0.17186747  0.56414566    -0.07100
C1923       C  0.00252691  0.18693478  0.58824348     0.13700
C1924       C  0.00167487  0.15732166  0.60605247    -0.20600
C1925       C  0.49920789  0.11234009  0.59994322    -0.07100
C1926       C  0.51203345  0.10252787  0.57629844     0.13700
C1927       C  0.52048020  0.05984615  0.56743370    -0.24000
H1928       H  0.52769731  0.12588732  0.54217984     0.15000
H1929       H  0.98854320  0.16440190  0.62321731     0.15000
C1930       C  0.98224312  0.22648400  0.59374022    -0.23900
H1931       H  0.53324242  0.05935106  0.54918014     0.05300
H1932       H  0.49158255  0.04174768  0.56681565     0.08500
H1933       H  0.54253108  0.04461389  0.57888499     0.08500
H1934       H  0.98148935  0.24696305  0.57836459     0.08500
H1935       H  0.99843290  0.24224540  0.60860476     0.08500
H1936       H  0.95016308  0.22035581  0.59912164     0.05200
C1937       C  0.00465207  0.36003007  0.57044387    -0.20600
C1938       C  0.03742399  0.37460738  0.55665020    -0.07100
C1939       C  0.54339647  0.40811368  0.55981524     0.13700
C1940       C  0.53171137  0.43129940  0.57962413    -0.20600
C1941       C  0.01211984  0.41721795  0.59734435    -0.07100
C1942       C  0.99253449  0.38030451  0.59107011     0.13700
C1943       C  0.95847399  0.36259932  0.60584936    -0.24000
H1944       H  0.98963456  0.33153688  0.56553701     0.15000
H1945       H  0.54381434  0.46192111  0.58200875     0.15000
C1946       C  0.57637187  0.42466180  0.54374952    -0.23900
H1947       H  0.94602463  0.33383863  0.59801906     0.05300
H1948       H  0.93332695  0.38446240  0.60713098     0.08500
H1949       H  0.96979654  0.35605827  0.62390461     0.08500
H1950       H  0.56477914  0.42987364  0.52570285     0.08500
H1951       H  0.60197967  0.40322867  0.54284089     0.08500
H1952       H  0.58856549  0.45431657  0.55036898     0.05200
C1953       C  0.60214695  0.26008819  0.21687447    -0.20600
C1954       C  0.61266364  0.22154493  0.20868512    -0.07100
C1955       C  0.58442933  0.18951725  0.21292219     0.13700
C1956       C  0.54739350  0.19733049  0.22527062    -0.20600
C1957       C  0.53647077  0.23638716  0.23430749    -0.07100
C1958       C  0.56802037  0.26771427  0.23121127     0.13700
C1959       C  0.57205867  0.30905524  0.24350413    -0.24000
H1960       H  0.62295893  0.28524815  0.21332947     0.15000
H1961       H  0.52704994  0.17179686  0.22860806     0.15000
C1962       C  0.59303544  0.14697675  0.20464653    -0.23900
H1963       H  0.60451194  0.31913608  0.24506073     0.05300
H1964       H  0.56272018  0.30963942  0.26221374     0.08500
H1965       H  0.55765763  0.33273415  0.23281991     0.08500
H1966       H  0.62117008  0.13620641  0.21324672     0.08500
H1967       H  0.59695923  0.14633479  0.18508939     0.08500
H1968       H  0.56773850  0.12553929  0.20914187     0.05200
C1969       C  0.91856008  0.24481111  0.25090020    -0.20600
C1970       C  0.95365709  0.23933689  0.23609877    -0.07100
C1971       C  0.94491653  0.23232513  0.21141680     0.13700
C1972       C  0.90399037  0.23317760  0.20319757    -0.20600
C1973       C  0.86997033  0.24013064  0.21805482    -0.07100
C1974       C  0.87795229  0.24597665  0.24241252     0.13700
C1975       C  0.84396206  0.25357779  0.25975008    -0.24000
H1976       H  0.92315510  0.24863503  0.26981008     0.15000
H1977       H  0.89853805  0.22829587  0.18442901     0.15000
C1978       C  0.97661390  0.22329138  0.19282919    -0.23900
H1979       H  0.85533490  0.25662812  0.27824099     0.05300
H1980       H  0.82157134  0.22795904  0.25911811     0.08500
H1981       H  0.82857708  0.28215699  0.25529982     0.08500
H1982       H  0.98808891  0.19236406  0.19529681     0.08500
H1983       H  0.00141845  0.24643443  0.19278766     0.08500
H1984       H  0.96372680  0.22319164  0.17462810     0.05200
C1985       C  0.71529005  0.14872243  0.05048992    -0.20600
C1986       C  0.73499198  0.11163595  0.05293335    -0.07100
C1987       C  0.75968788  0.10562224  0.07303220     0.13700
C1988       C  0.75715114  0.13262348  0.09208617    -0.20600
C1989       C  0.73438058  0.16810908  0.09074316    -0.07100
C1990       C  0.71681759  0.17820925  0.06869903     0.13700
C1991       C  0.70010663  0.21945504  0.06398563    -0.24000
H1992       H  0.69781686  0.15419678  0.03459875     0.15000
H1993       H  0.77299439  0.12534340  0.10823915     0.15000
C1994       C  0.78784634  0.07026954  0.07534990    -0.23900
H1995       H  0.67477926  0.22591764  0.07617141     0.05300
H1996       H  0.68845224  0.22174052  0.04558533     0.08500
H1997       H  0.72458092  0.24288172  0.06646429     0.08500
H1998       H  0.79002925  0.05195439  0.05879148     0.08500
H1999       H  0.77719116  0.05037183  0.08992949     0.08500
H2000       H  0.81906865  0.08181862  0.07957369     0.05200
C2001       C  0.74908532  0.39122398  0.09869709    -0.20600
C2002       C  0.77844215  0.36462077  0.10715482    -0.07100
C2003       C  0.81831474  0.36616240  0.09738784     0.13700
C2004       C  0.82640572  0.39139480  0.07802173    -0.20600
C2005       C  0.79613893  0.41578177  0.06867821    -0.07100
C2006       C  0.75764411  0.41730760  0.07985684     0.13700
C2007       C  0.72463156  0.44523606  0.07195527    -0.24000
H2008       H  0.71871213  0.39064486  0.10630807     0.15000
H2009       H  0.85617148  0.39133611  0.06966252     0.15000
C2010       C  0.85204158  0.34014064  0.10638146    -0.23900
H2011       H  0.71589814  0.46531636  0.08700825     0.05300
H2012       H  0.69749370  0.42701188  0.06620563     0.08500
H2013       H  0.73414491  0.46489020  0.05707448     0.08500
H2014       H  0.84342106  0.30767508  0.10444216     0.08500
H2015       H  0.85817243  0.34753247  0.12531603     0.08500
H2016       H  0.88087181  0.34516398  0.09640938     0.05200
C2017       C  0.77056497  0.10318083  0.89804470    -0.20600
C2018       C  0.73654876  0.12270161  0.88915089    -0.07100
C2019       C  0.69751031  0.11254518  0.89820611     0.13700
C2020       C  0.69438388  0.08869499  0.91862313    -0.20600
C2021       C  0.72934449  0.07331906  0.92930668    -0.07100
C2022       C  0.76732745  0.07808252  0.91784023     0.13700
C2023       C  0.80453098  0.05737399  0.92682596    -0.24000
H2024       H  0.80016088  0.10966703  0.89045476     0.15000
H2025       H  0.66468806  0.08227072  0.92629944     0.15000
C2026       C  0.65895747  0.12544919  0.88626676    -0.23900
H2027       H  0.83099782  0.06267999  0.91500893     0.05300
H2028       H  0.79886032  0.02411350  0.92729224     0.08500
H2029       H  0.81218728  0.06874990  0.94492206     0.08500
H2030       H  0.63986465  0.14293833  0.89880405     0.08500
H2031       H  0.64121580  0.09803405  0.88048783     0.08500
H2032       H  0.66525112  0.14386788  0.87032619     0.05200
C2033       C  0.78064231  0.31974125  0.92477689    -0.20600
C2034       C  0.75959478  0.33523888  0.90534073    -0.07100
C2035       C  0.74522185  0.37517939  0.90631157     0.13700
C2036       C  0.75357047  0.39899347  0.92642828    -0.20600
C2037       C  0.77943073  0.38546376  0.94445511    -0.07100
C2038       C  0.79300008  0.34503295  0.94368762     0.13700
C2039       C  0.82204770  0.32805862  0.96153187    -0.24000
H2040       H  0.78970882  0.28831917  0.92455358     0.15000
H2041       H  0.74224739  0.42964003  0.92735767     0.15000
C2042       C  0.72075021  0.39278573  0.88641177    -0.23900
H2043       H  0.84945955  0.31679757  0.95226669     0.05300
H2044       H  0.80702020  0.30241112  0.97090902     0.08500
H2045       H  0.83295757  0.35066395  0.97484021     0.08500
H2046       H  0.71033483  0.42381620  0.89083183     0.08500
H2047       H  0.69338318  0.37334532  0.88277861     0.08500
H2048       H  0.73967101  0.39500423  0.87014171     0.05200
C2049       C  0.99488375  0.17728071  0.74797222    -0.20600
C2050       C  0.49590513  0.21247286  0.73954361    -0.07100
C2051       C  0.52868541  0.20501893  0.72297372     0.13700
C2052       C  0.53148703  0.16710287  0.71042044    -0.20600
C2053       C  0.50399469  0.13440284  0.71390320    -0.07100
C2054       C  0.99931026  0.13932530  0.73663335     0.13700
C2055       C  0.99266926  0.10140408  0.75096722    -0.24000
H2056       H  0.98797216  0.17750530  0.76672367     0.15000
H2057       H  0.55617016  0.16269571  0.69793711     0.15000
C2058       C  0.56269100  0.23539480  0.71856832    -0.23900
H2059       H  0.98665663  0.10848956  0.76993759     0.05300
H2060       H  0.02015773  0.08236156  0.74999172     0.08500
H2061       H  0.96584011  0.08386041  0.74415220     0.08500
H2062       H  0.55102581  0.26578102  0.71483133     0.08500
H2063       H  0.58153793  0.22662319  0.70303179     0.08500
H2064       H  0.58355063  0.23643699  0.73396985     0.05200
C2065       C  0.02329516  0.32769281  0.74513369    -0.20600
C2066       C  0.99312619  0.29695511  0.73944458    -0.07100
C2067       C  0.96126984  0.30938653  0.72383971     0.13700
C2068       C  0.96164536  0.34898665  0.71455947    -0.20600
C2069       C  0.99214515  0.37795405  0.72012793    -0.07100
C2070       C  0.02344565  0.36701474  0.73550142     0.13700
C2071       C  0.05742969  0.39681741  0.74158109    -0.24000
H2072       H  0.04648170  0.32274807  0.75817671     0.15000
H2073       H  0.93751959  0.35755542  0.70259953     0.15000
C2074       C  0.92542341  0.28244540  0.71678273    -0.23900
H2075       H  0.08009531  0.38366282  0.75373673     0.05300
H2076       H  0.04471894  0.42412809  0.75034930     0.08500
H2077       H  0.51637166  0.42412430  0.75682552     0.08500
H2078       H  0.93367841  0.25021501  0.71537366     0.08500
H2079       H  0.49358914  0.25959963  0.68555067     0.08500
H2080       H  0.90023735  0.28639770  0.72969205     0.05200
C2081       C  0.55951694  0.29061015  0.76401257    -0.20600
C2082       C  0.53069588  0.25920500  0.76976351    -0.07100
C2083       C  0.54426349  0.23125702  0.78725606     0.13700
C2084       C  0.58210836  0.23796463  0.79909288    -0.20600
C2085       C  0.60896607  0.27034302  0.79355586    -0.07100
C2086       C  0.59820931  0.29496073  0.77443210     0.13700
C2087       C  0.62827589  0.32270342  0.76210725    -0.24000
H2088       H  0.55475734  0.30991225  0.74903599     0.15000
H2089       H  0.59145792  0.21661669  0.81239341     0.15000
C2090       C  0.52083129  0.19334571  0.79392740    -0.23900
H2091       H  0.61819129  0.35456673  0.76369513     0.05300
H2092       H  0.62960283  0.31435342  0.74297581     0.08500
H2093       H  0.65968022  0.32015347  0.76886963     0.08500
H2094       H  0.48917072  0.19275887  0.78766231     0.08500
H2095       H  0.51938014  0.19086905  0.81352428     0.08500
H2096       H  0.53659362  0.16641475  0.78665594     0.05200
C2097       C  0.91848760  0.22355923  0.75986249    -0.20600
C2098       C  0.94867031  0.25367309  0.76596738    -0.07100
C2099       C  0.93531926  0.28435307  0.78255945     0.13700
C2100       C  0.89594857  0.28157597  0.79316945    -0.20600
C2101       C  0.86732161  0.25111564  0.78683895    -0.07100
C2102       C  0.87910665  0.22184939  0.76985327     0.13700
C2103       C  0.85056752  0.18746073  0.76246177    -0.24000
H2104       H  0.92408083  0.20155735  0.74605344     0.15000
H2105       H  0.88677209  0.30443587  0.80598051     0.15000
C2106       C  0.96040856  0.32200250  0.78852361    -0.23900
H2107       H  0.86471714  0.16665205  0.74933509     0.05300
H2108       H  0.82267440  0.19948302  0.75424058     0.08500
H2109       H  0.84238096  0.16913090  0.77811707     0.08500
H2110       H  0.94799096  0.33845219  0.80416059     0.08500
H2111       H  0.95947588  0.34329462  0.77353275     0.08500
H2112       H  0.99229051  0.31502672  0.79276229     0.05200
C2113       C  0.85034287  0.02305447  0.71783939    -0.20600
C2114       C  0.85706019  0.48449943  0.70525073    -0.07100
C2115       C  0.82671578  0.45371040  0.70765033     0.13700
C2116       C  0.78871065  0.46264644  0.71883116    -0.20600
C2117       C  0.78246919  0.99896349  0.73264957    -0.07100
C2118       C  0.81596926  0.02912691  0.73221987     0.13700
C2119       C  0.82162350  0.06736168  0.74746949    -0.24000
H2120       H  0.87270280  0.04755193  0.71665314     0.15000
H2121       H  0.76678573  0.43794918  0.72092443     0.15000
C2122       C  0.83470657  0.41099397  0.69953928    -0.23900
H2123       H  0.85306662  0.08051250  0.74684997     0.05300
H2124       H  0.81826700  0.06128276  0.76649468     0.08500
H2125       H  0.80321483  0.09232555  0.74080624     0.08500
H2126       H  0.86124686  0.39912277  0.70926083     0.08100
H2127       H  0.84108979  0.41045333  0.68020551     0.08500
H2128       H  0.80814506  0.39044529  0.70288745     0.05200
C2129       C  0.62393978  0.01311692  0.73643477    -0.20600
C2130       C  0.61992873  0.00294851  0.71245278    -0.07100
C2131       C  0.65627694  0.99202282  0.70011977     0.13700
C2132       C  0.69442295  0.99106732  0.71210297    -0.20600
C2133       C  0.69872309  0.00004231  0.73655960    -0.07100
C2134       C  0.66075980  0.51241754  0.74891774     0.13700
C2135       C  0.65780161  0.52734683  0.77446023    -0.24000
H2136       H  0.59625245  0.52288340  0.74615434     0.15000
H2137       H  0.72103293  0.98381830  0.70182431     0.15000
C2138       C  0.65571827  0.98115332  0.67412058    -0.23900
H2139       H  0.65085090  0.56016890  0.77485689     0.05300
H2140       H  0.68304194  0.01016999  0.78575861     0.08500
H2141       H  0.63257527  0.51074877  0.78353509     0.08500
H2142       H  0.64678332  0.00781309  0.66367625     0.08500
H2143       H  0.63409084  0.95533738  0.67092861     0.08500
H2144       H  0.68610033  0.97183020  0.66756924     0.05200
C2145       C  0.75379395  0.04292522  0.78812940    -0.20600
C2146       C  0.74303177  0.04078757  0.76377534    -0.07100
C2147       C  0.73256047  0.07842203  0.75260348     0.13700
C2148       C  0.73470064  0.11492460  0.76540566    -0.20600
C2149       C  0.74780741  0.11674979  0.78869696    -0.07100
C2150       C  0.75725696  0.08045426  0.80048877     0.13700
C2151       C  0.76969300  0.08088441  0.82621130    -0.24000
H2152       H  0.76069639  0.01545602  0.79742241     0.15000
H2153       H  0.72803292  0.14309610  0.75660182     0.15000
C2154       C  0.72336845  0.08266833  0.72642482    -0.23900
H2155       H  0.77565554  0.04988891  0.83265642     0.05300
H2156       H  0.74463088  0.09332165  0.83709904     0.08500
H2157       H  0.79791986  0.09950261  0.82886929     0.08500
H2158       H  0.69072611  0.07587089  0.72289853     0.08500
H2159       H  0.74301361  0.06318535  0.71535336     0.08500
H2160       H  0.72922244  0.11413788  0.72028020     0.05200
C2161       C  0.71039056  0.44281570  0.77477972    -0.20600
C2162       C  0.74605258  0.46237390  0.76566646    -0.07100
C2163       C  0.78287071  0.44048017  0.77037655     0.13700
C2164       C  0.78100570  0.39898743  0.77762107    -0.20600
C2165       C  0.74426254  0.37989709  0.78476874    -0.07100
C2166       C  0.71024995  0.40526573  0.78641363     0.13700
C2167       C  0.67485542  0.39529756  0.80254909    -0.24000
H2168       H  0.68132548  0.45618447  0.77371335     0.15000
H2169       H  0.80905719  0.38255306  0.77955552     0.15000
C2170       C  0.82485040  0.45995804  0.77002972    -0.23900
H2171       H  0.65162333  0.41933124  0.80268832     0.05300
H2172       H  0.68603279  0.39225498  0.82100074     0.08500
H2173       H  0.65954852  0.36692272  0.79711545     0.08500
H2174       H  0.82449234  0.49296493  0.76705544     0.08500
H2175       H  0.84403924  0.44511524  0.75637384     0.08500
H2176       H  0.83947465  0.45597686  0.78756828     0.05200
C2177       C  0.60323768  0.29888086  0.08554926    -0.20600
C2178       C  0.59138985  0.26418640  0.07218244    -0.07100
C2179       C  0.59440054  0.22590170  0.08300598     0.13700
C2180       C  0.61100489  0.22305095  0.10590735    -0.20600
C2181       C  0.62556588  0.25733191  0.11887229    -0.07100
C2182       C  0.61950330  0.29609478  0.10877954     0.13700
C2183       C  0.62777898  0.33476333  0.12266885    -0.24000
H2184       H  0.59804113  0.32844557  0.07809937     0.15000
H2185       H  0.61423790  0.19302108  0.11315797     0.15000
C2186       C  0.58079409  0.18697076  0.07077031    -0.23900
H2187       H  0.61745531  0.36175835  0.11295277     0.05300
H2188       H  0.66071518  0.33928696  0.12607664     0.08500
H2189       H  0.61109526  0.33371703  0.13979563     0.08500
H2190       H  0.60701238  0.16630404  0.06930157     0.08500
H2191       H  0.56890553  0.19151030  0.05264624     0.08500
H2192       H  0.55638271  0.17202553  0.08136940     0.05200
C2193       C  0.87424894  0.16673255  0.07832127    -0.20600
C2194       C  0.87339697  0.18987245  0.05752832    -0.07100
C2195       C  0.84790996  0.22381827  0.05671615     0.13700
C2196       C  0.82607396  0.23511622  0.07700951    -0.20600
C2197       C  0.83082272  0.21513818  0.09869465    -0.07100
C2198       C  0.85443882  0.17971687  0.09918627     0.13700
C2199       C  0.86014902  0.15629706  0.12165139    -0.24000
H2200       H  0.89397810  0.14080123  0.07888948     0.15000
H2201       H  0.80706524  0.26156124  0.07624543     0.15000
C2202       C  0.84594385  0.25021332  0.03511475    -0.23900
H2203       H  0.87778223  0.12835297  0.11844854     0.05300
H2204       H  0.83018906  0.14721352  0.12921329     0.08500
H2205       H  0.87713984  0.17534465  0.13483020     0.08500
H2206       H  0.83315400  0.23258793  0.01989340     0.08500
H2207       H  0.87690168  0.26189142  0.03054826     0.08500
H2208       H  0.82618258  0.27676329  0.03809369     0.05200
C2209       C  0.60042976  0.28290003  0.92758973    -0.20600
C2210       C  0.61054310  0.25297093  0.94408836    -0.07100
C2211       C  0.63865240  0.22322516  0.93697078     0.13700
C2212       C  0.65466315  0.22359812  0.91370473    -0.20600
C2213       C  0.64234459  0.25172716  0.89660670    -0.07100
C2214       C  0.61482965  0.28205805  0.90400429     0.13700
C2215       C  0.59840571  0.31235526  0.88684044    -0.24000
H2216       H  0.57787514  0.30498992  0.93265201     0.15000
H2217       H  0.67711432  0.20149675  0.90902037     0.15000
C2218       C  0.65124937  0.18976592  0.95316106    -0.23900
H2219       H  0.57396461  0.33077641  0.89496038     0.05300
H2220       H  0.58525636  0.29617423  0.87113702     0.08500
H2221       H  0.62287736  0.33375628  0.88115367     0.08500
H2222       H  0.64244714  0.15992066  0.94514947     0.08500
H2223       H  0.63696625  0.19194221  0.97092679     0.08500
H2224       H  0.68484029  0.19107247  0.95555952     0.05200
C2225       C  0.87117081  0.22535139  0.92973742    -0.20600
C2226       C  0.88299133  0.18583129  0.93498470    -0.07100
C2227       C  0.88113892  0.15519644  0.91729245     0.13700
C2228       C  0.86501235  0.16448610  0.89504218    -0.20600
C2229       C  0.85365370  0.20446220  0.88993740    -0.07100
C2230       C  0.86081972  0.23554693  0.90665522     0.13700
C2231       C  0.86402677  0.27923027  0.89910629    -0.24000
H2232       H  0.87694860  0.24938904  0.94266805     0.15000
H2233       H  0.86186792  0.14083863  0.88160578     0.15000
C2234       C  0.89877460  0.11403155  0.92163216    -0.23900
H2235       H  0.87417437  0.29951296  0.91387218     0.05300
H2236       H  0.83484408  0.29055282  0.89251946     0.08500
H2237       H  0.88691060  0.28194382  0.88466404     0.08500
H2238       H  0.88361731  0.09997189  0.93717646     0.08500
H2239       H  0.93191578  0.11713354  0.92536307     0.08500
H2240       H  0.89501444  0.09350097  0.90599027     0.05200
C2241       C  0.86556455  0.49624920  0.26437369    -0.20600
C2242       C  0.86470056  0.49622647  0.28914313    -0.07100
C2243       C  0.82683261  0.50452613  0.30024058     0.13700
C2244       C  0.79088302  0.50817264  0.28625884    -0.20600
C2245       C  0.79060276  0.50086170  0.26131424    -0.07100
C2246       C  0.83034272  0.49884745  0.25042386     0.13700
C2247       C  0.83745096  0.99466557  0.22701122    -0.24000
H2248       H  0.89453510  0.49253741  0.25547396     0.15000
H2249       H  0.76299174  0.51580224  0.29522275     0.15000
C2250       C  0.82401253  0.51012180  0.32671999    -0.23900
H2251       H  0.87012150  0.99204068  0.22219459     0.05300
H2252       H  0.82793942  0.02314735  0.21884307     0.08500
H2253       H  0.82352098  0.47090370  0.21567058     0.08500
H2254       H  0.84585253  0.02697133  0.33687378     0.08500
H2255       H  0.83174547  0.48153054  0.33567079     0.08500
H2256       H  0.79279425  0.51832272  0.33239691     0.05200
C2257       C  0.63620393  0.01940496  0.26951887    -0.20600
C2258       C  0.63034006  0.99686823  0.28996585    -0.07100
C2259       C  0.66447456  0.47715387  0.29568019     0.13700
C2260       C  0.70088096  0.47474381  0.28177425    -0.20600
C2261       C  0.70738712  0.99609603  0.26370252    -0.07100
C2262       C  0.67200822  0.01822225  0.25573269     0.13700
C2263       C  0.66736199  0.03890312  0.23203885    -0.24000
H2264       H  0.61130416  0.03804261  0.26377375     0.15000
H2265       H  0.72515095  0.45673515  0.28848304     0.15000
C2266       C  0.66210733  0.45547456  0.31897670    -0.23900
H2267       H  0.63509883  0.04548521  0.22784518     0.05300
H2268       H  0.67707318  0.01928207  0.21726397     0.08500
H2269       H  0.68291866  0.06887761  0.23200671     0.08500
H2270       H  0.63622673  0.43324328  0.31870116     0.08500
H2271       H  0.65768931  0.47774580  0.33364874     0.08500
H2272       H  0.69043607  0.43882275  0.32267066     0.05200
C2273       C  0.75666288  0.07089904  0.24801341    -0.20600
C2274       C  0.75381565  0.03403354  0.23434572    -0.07100
C2275       C  0.75394844  0.03919846  0.20900360     0.13700
C2276       C  0.75370829  0.07895922  0.19943304    -0.20600
C2277       C  0.75398504  0.11490220  0.21344857    -0.07100
C2278       C  0.75705172  0.11019375  0.23821560     0.13700
C2279       C  0.76065697  0.14633568  0.25473341    -0.24000
H2280       H  0.75685327  0.06899829  0.26715710     0.15000
H2281       H  0.75174156  0.08182376  0.18036117     0.15000
C2282       C  0.75218265  0.00494230  0.19097040    -0.23900
H2283       H  0.76531880  0.13723951  0.27340806     0.05300
H2284       H  0.73241772  0.16421774  0.25415613     0.08500
H2285       H  0.78724609  0.16548188  0.24946397     0.08500
H2286       H  0.72047524  0.99363744  0.18861308     0.08500
H2287       H  0.77263925  0.98015866  0.19535550     0.08500
H2288       H  0.76229029  0.01534429  0.17322055     0.05200
C2289       C  0.72364683  0.43778615  0.21568203    -0.20600
C2290       C  0.75176723  0.45023135  0.23366701    -0.07100
C2291       C  0.77892954  0.41808535  0.24059384     0.13700
C2292       C  0.78506014  0.38375514  0.22573206    -0.20600
C2293       C  0.75920274  0.37376229  0.20688098    -0.07100
C2294       C  0.72702052  0.40077708  0.20240032     0.13700
C2295       C  0.69655589  0.39115165  0.18306027    -0.24000
H2296       H  0.69911697  0.45726712  0.21131875     0.15000
H2297       H  0.80719109  0.36148607  0.23087943     0.15000
C2298       C  0.79737040  0.41314893  0.26492455    -0.23900
H2299       H  0.67437563  0.41584732  0.18099803     0.05300
H2300       H  0.67910956  0.36295779  0.18722072     0.08500
H2301       H  0.71269741  0.38704994  0.16590204     0.08500
H2302       H  0.78367458  0.43201448  0.27876381     0.08500
H2303       H  0.83089802  0.41790900  0.26421764     0.08500
H2304       H  0.79139230  0.38174770  0.27117418     0.05200
C2305       C  0.74980739  0.49488749  0.24604427    -0.02800
N2306       N  0.54178209  0.72975055  0.99405870    -0.36900
N2307       N  0.99182030  0.77595886  0.95726943    -0.57400
N2308       N  0.92598012  0.79866455  0.98890884    -0.36900
N2309       N  0.98008866  0.76952949  0.02635351    -0.57400
C2310       C  0.55864008  0.71318966  0.97430944     0.26700
C2311       C  0.55293286  0.70772306  0.01283465     0.26700
C2312       C  0.90651424  0.79177068  0.96810683     0.26700
C2313       C  0.89988849  0.78886163  0.00654832     0.26700
C2314       C  0.52663446  0.75999060  0.94724712     0.35300
C2315       C  0.96776945  0.79864611  0.94375198     0.35300
C2316       C  0.51023635  0.74205209  0.04255213     0.35300
C2317       C  0.95156150  0.79116792  0.03782478     0.35300
C2318       C  0.58093922  0.67975333  0.98075311    -0.22200
C2319       C  0.57792473  0.67678356  0.00520005    -0.22200
C2320       C  0.86670442  0.77897631  0.97250227    -0.22200
C2321       C  0.86254733  0.77698104  0.99692537    -0.22200
C2322       C  0.52501391  0.78541222  0.92791188    -0.23200
C2323       C  0.98886133  0.81140599  0.92380138    -0.23200
C2324       C  0.50333799  0.76132804  0.06416740    -0.23200
C2325       C  0.96588321  0.80382358  0.05986474    -0.23200
C2326       C  0.55559422  0.72997595  0.95122544    -0.18600
C2327       C  0.54462266  0.71873874  0.03667614    -0.18600
C2328       C  0.91035662  0.79063603  0.03085603    -0.18600
C2329       C  0.92531518  0.79540582  0.94562008    -0.18600
H2330       H  0.59816232  0.66001267  0.96920444     0.14300
H2331       H  0.59259372  0.65466678  0.01613440     0.14300
H2332       H  0.84354741  0.77092358  0.95951898     0.14300
H2333       H  0.83554580  0.76710257  0.00644135     0.14300
H2334       H  0.54827536  0.79044295  0.91459863     0.12600
H2335       H  0.97689700  0.82754422  0.90884775     0.12600
H2336       H  0.52346232  0.76352433  0.07932147     0.12600
H2337       H  0.94920479  0.81997224  0.07346858     0.12600
H2338       H  0.52777894  0.75784717  0.99534639     0.25900
H2339       H  0.95549208  0.81049146  0.99103969     0.25900
C2340       C  0.74282169  0.50212572  0.74903860    -0.02800
C2341       C  0.98864417  0.75617246  0.75142035    -0.02800
N2342       N  0.80981015  0.56080087  0.99274714    -0.36900
N2343       N  0.81283125  0.50686747  0.03249641    -0.57400
N2344       N  0.72584844  0.93105714  0.01075230    -0.36900
N2345       N  0.80506130  0.48896143  0.96351482    -0.57400
C2346       C  0.79661879  0.58490598  0.01060599     0.26700
C2347       C  0.79498160  0.57528422  0.97228570     0.26700
C2348       C  0.73033030  0.91533193  0.03272544     0.26700
C2349       C  0.73717710  0.90281163  0.99457472     0.26700
C2350       C  0.82287927  0.54288699  0.04264405     0.35300
C2351       C  0.71165027  0.97705359  0.05538772     0.35300
C2352       C  0.81312889  0.51715312  0.94702688     0.35300
C2353       C  0.72746421  0.94372899  0.95760160     0.35300
C2354       C  0.77353515  0.61571925  0.00128876    -0.22200
C2355       C  0.77315512  0.61003205  0.97694867    -0.22200
C2356       C  0.74352645  0.87582783  0.03038782    -0.22200
C2357       C  0.74797627  0.86795644  0.00635230    -0.22200
C2358       C  0.83933418  0.53691551  0.06497283    -0.23200
C2359       C  0.69452608  0.99704310  0.07457237    -0.23200
C2360       C  0.82567828  0.49897649  0.92605109    -0.23200
C2361       C  0.72032421  0.94650753  0.93333395    -0.23200
C2362       C  0.80651104  0.57965225  0.03480887    -0.18600
C2363       C  0.80201360  0.55777405  0.94972636    -0.18600
C2364       C  0.73536318  0.90697486  0.96951423    -0.18600
C2365       C  0.72102161  0.93543551  0.05457124    -0.18600
H2366       H  0.75867260  0.63985057  0.01092740     0.14300
H2367       H  0.75789632  0.62876924  0.96424256     0.14300
H2368       H  0.74872721  0.85463284  0.04449412     0.14300
H2369       H  0.75753536  0.83960568  0.99844991     0.14300
H2370       H  0.84800984  0.56002410  0.07792915     0.12600
H2371       H  0.68439649  0.98404948  0.09113691     0.12600
H2372       H  0.83231955  0.51347499  0.90934990     0.12600
H2373       H  0.71922119  0.92245698  0.92013517     0.12600
H2374       H  0.83054950  0.53742220  0.99419991     0.25900
H2375       H  0.71178083  0.95810428  0.00667889     0.25900
O2376       O  0.80492646  0.75784678  0.86499101    -0.80400
O2377       O  0.72969024  0.80433854  0.78689106    -0.80400
O2378       O  0.81813084  0.76432217  0.81803357    -0.80400
O2379       O  0.73926801  0.82092876  0.86724682    -0.80400
O2380       O  0.79031202  0.74492919  0.78503201    -0.80500
O2381       O  0.73446562  0.76755800  0.88841104    -0.80400
O2382       O  0.72947895  0.83832745  0.82119520    -0.80400
O2383       O  0.84203452  0.70900380  0.84982176    -0.80400
C2384       C  0.83900307  0.73976093  0.86371310     1.09300
C2385       C  0.73328437  0.83761259  0.79890299     1.09200
C2386       C  0.82165316  0.75798999  0.79613561     1.09300
C2387       C  0.73834719  0.80505458  0.88736778     1.09200
O2388       O  0.69422225  0.70473068  0.86556812    -0.80400
O2389       O  0.72914903  0.68395945  0.79851591    -0.80500
O2390       O  0.76765231  0.66992517  0.85384804    -0.80400
O2391       O  0.65414945  0.79039225  0.81885125    -0.80400
O2392       O  0.67041031  0.73755277  0.79675424    -0.80400
O2393       O  0.76682919  0.69785656  0.88887670    -0.80400
O2394       O  0.66663298  0.76549806  0.86573267    -0.80400
O2395       O  0.79241866  0.67758516  0.80981465    -0.80400
Co2396     Co  0.74943255  0.72932026  0.86291028     1.51500
Co2397     Co  0.73025342  0.74346371  0.79463281     1.51700
Co2398     Co  0.78942468  0.72105193  0.83608768     1.51600
Co2399     Co  0.70041165  0.79982002  0.84228548     1.51500
O2400       O  0.73561847  0.75147208  0.83096315    -1.42300
C2401       C  0.66679530  0.72851757  0.87271511     1.09200
C2402       C  0.76033580  0.66238833  0.80000508     1.09300
C2403       C  0.77005604  0.66636773  0.87641332     1.09200
C2404       C  0.64471212  0.76267602  0.80382648     1.09200
O2405       O  0.72957904  0.81056775  0.19506921    -0.80400
O2406       O  0.68133494  0.76777375  0.11051169    -0.80400
O2407       O  0.77464786  0.83042521  0.14377146    -0.80400
O2408       O  0.66552820  0.69250203  0.17741547    -0.80400
O2409       O  0.70977032  0.81537074  0.14653314    -0.80500
O2410       O  0.67560719  0.75365905  0.19083755    -0.80400
O2411       O  0.67316531  0.70656971  0.12725166    -0.80400
O2412       O  0.79394630  0.81938570  0.19029492    -0.80400
C2413       C  0.76017108  0.83335357  0.19726470     1.09300
C2414       C  0.66298663  0.73364138  0.11148408     1.09200
C2415       C  0.73775355  0.84000190  0.14012607     1.09300
C2416       C  0.65208225  0.72351684  0.18824932     1.09200
O2417       O  0.73035053  0.69102958  0.20916001    -0.80400
O2418       O  0.76568502  0.78310102  0.11085317    -0.80500
O2419       O  0.82890989  0.74135587  0.17781946    -0.80400
O2420       O  0.75761960  0.67033422  0.13347846    -0.80400
O2421       O  0.74033313  0.71677295  0.11011197    -0.80400
O2422       O  0.79390844  0.75053384  0.21058866    -0.80400
O2423       O  0.74887133  0.65950869  0.17721397    -0.80400
O2424       O  0.81505100  0.75608494  0.13066155    -0.80400
Co2425     Co  0.73359787  0.75095437  0.19855705     1.51500
Co2426     Co  0.72130125  0.76174155  0.13292971     1.51700
Co2427     Co  0.79963963  0.78283312  0.16075670     1.51600
Co2428     Co  0.71469011  0.68815459  0.15475966     1.51500
O2429       O  0.74782321  0.74406422  0.16264640    -1.42300
C2430       C  0.74198335  0.65849371  0.19895998     1.09200
C2431       C  0.80232027  0.77122302  0.11165090     1.09300
C2432       C  0.82789176  0.74245401  0.20016609     1.09200
C2433       C  0.75593697  0.68298290  0.11302786     1.09200
O2434       O  0.47831235  0.56695739  0.69939434    -0.80400
O2435       O  0.93249802  0.52781208  0.64279906    -0.80400
O2436       O  0.50575146  0.58297986  0.63973289    -0.80400
O2437       O  0.91601751  0.95243848  0.68559242    -0.80400
O2438       O  0.98735347  0.54750076  0.60955504    -0.80500
O2439       O  0.92553636  0.50869219  0.70197235    -0.80400
O2440       O  0.92445070  0.97004147  0.63823789    -0.80400
O2441       O  0.53834050  0.58342866  0.68669336    -0.80400
C2442       C  0.50655053  0.59301241  0.69830787     1.09300
C2443       C  0.91752393  0.00638642  0.63226028     1.09200
C2444       C  0.49749470  0.58031417  0.61712933     1.09300
C2445       C  0.90268783  0.98329565  0.69679252     1.09200
O2446       O  0.48263591  0.95020473  0.71781505    -0.80400
O2447       O  0.55080052  0.51113371  0.62817989    -0.80500
O2448       O  0.57502700  0.50491295  0.67855239    -0.80400
O2449       O  0.00656093  0.93236741  0.63836965    -0.80400
O2450       O  0.98553617  0.97309482  0.61211470    -0.80400
O2451       O  0.54464210  0.51084932  0.71324121    -0.80400
O2452       O  0.99944404  0.91990284  0.68403496    -0.80400
O2453       O  0.58288514  0.56364379  0.64500763    -0.80400
Co2454     Co  0.48328607  0.50823409  0.70509474     1.51500
Co2455     Co  0.99096550  0.52041250  0.63778187     1.51700
Co2456     Co  0.53700902  0.53917564  0.66062725     1.51600
Co2457     Co  0.96421721  0.94819674  0.66233537     1.51500
O2458       O  0.49126396  0.49688123  0.66978989    -1.42300
C2459       C  0.99223787  0.91951394  0.70575970     1.09200
C2460       C  0.58058016  0.53752597  0.62822369     1.09300
C2461       C  0.57708521  0.50489315  0.70095607     1.09200
C2462       C  0.00265536  0.94151461  0.61690342     1.09200
O2463       O  0.55819188  0.50691901  0.28691439    -0.80400
O2464       O  0.00512055  0.95693651  0.38242666    -0.80400
O2465       O  0.58796468  0.56334470  0.35486892    -0.80400
O2466       O  0.96101772  0.91208781  0.30978310    -0.80400
O2467       O  0.56742272  0.99625357  0.36862474    -0.80500
O2468       O  0.51080326  0.93478242  0.28740045    -0.80400
O2469       O  0.99815739  0.91236424  0.35345666    -0.80400
O2470       O  0.58558751  0.50294654  0.32181066    -0.80400
C2471       C  0.58948879  0.50242715  0.29958357     1.09300
C2472       C  0.00975734  0.92160543  0.37415941     1.09200
C2473       C  0.59346902  0.53482597  0.36932978     1.09300
C2474       C  0.98828360  0.90837620  0.29429385     1.09200
O2475       O  0.93698923  0.48846102  0.28925355    -0.80400
O2476       O  0.00892638  0.53284921  0.39489848    -0.80500
O2477       O  0.53919863  0.57849465  0.31462448    -0.80400
O2478       O  0.93306902  0.96065724  0.37087511    -0.80400
O2479       O  0.94955724  0.02280950  0.36756827    -0.80400
O2480       O  0.48679428  0.55480947  0.29410161    -0.80400
O2481       O  0.90860472  0.97514725  0.32526217    -0.80400
O2482       O  0.50933787  0.57367391  0.36321091    -0.80400
Co2483     Co  0.49854446  0.49600203  0.29243546     1.51500
Co2484     Co  0.00854812  0.00910205  0.36546965     1.51700
Co2485     Co  0.54283196  0.53480102  0.33983671     1.51600
Co2486     Co  0.95502006  0.94504780  0.33904304     1.51500
O2487       O  0.49745332  0.98679431  0.33017420    -1.42300
C2488       C  0.90641860  0.98631849  0.30395092     1.09200
C2489       C  0.50975014  0.56822708  0.38616258     1.09300
C2490       C  0.51061746  0.58407013  0.29969369     1.09200
C2491       C  0.92845674  0.99640503  0.37784053     1.09200
N2492       N  0.02189322  0.70971003  0.50223306    -0.36900
N2493       N  0.04290655  0.77200626  0.53475193    -0.57400
N2494       N  0.06414127  0.82943077  0.49696714    -0.36900
N2495       N  0.04319435  0.76344619  0.46466734    -0.57400
C2496       C  0.00479247  0.69543889  0.52236158     0.26700
C2497       C  0.00274292  0.69134729  0.48367582     0.26700
C2498       C  0.05273684  0.85378190  0.51512256     0.26700
C2499       C  0.05612531  0.84889838  0.47664054     0.26700
C2500       C  0.04302638  0.74040528  0.54963398     0.35300
C2501       C  0.06212522  0.80310821  0.54589637     0.35300
C2502       C  0.04018793  0.72808426  0.45257208     0.35300
C2503       C  0.06332097  0.78959028  0.45053569     0.35300
C2504       C  0.97429873  0.66725969  0.51652592    -0.22200
C2505       C  0.97310524  0.66458836  0.49204473    -0.22200
C2506       C  0.03852192  0.88993932  0.50625844    -0.22200
C2507       C  0.04151263  0.88716070  0.48187405    -0.22200
C2508       C  0.06400950  0.75087777  0.57020794    -0.23200
C2509       C  0.07548866  0.79106909  0.56800898    -0.23200
C2510       C  0.06021106  0.73104041  0.43098584    -0.23200
C2511       C  0.07422787  0.77041986  0.42950823    -0.23200
C2512       C  0.01920359  0.70494605  0.54558508    -0.18600
C2513       C  0.01470131  0.69567547  0.45967944    -0.18600
C2514       C  0.06032454  0.83158593  0.45374480    -0.18600
C2515       C  0.05574912  0.84338523  0.53927235    -0.18600
H2516       H  0.95547603  0.64987536  0.52863164     0.14300
H2517       H  0.95330240  0.64469777  0.48161885     0.14300
H2518       H  0.02681549  0.91546417  0.51619624     0.14300
H2519       H  0.03235277  0.90995564  0.46943723     0.14300
H2520       H  0.06820465  0.73249769  0.58572381     0.12600
H2521       H  0.08926800  0.81014335  0.58170127     0.12600
H2522       H  0.06208165  0.70816164  0.41710844     0.12600
H2523       H  0.08837146  0.78400513  0.41412686     0.12600
H2524       H  0.04903671  0.72666242  0.50125442     0.25900
H2525       H  0.07773665  0.80126438  0.49838177     0.25900
N2526       N  0.69281463  0.55134759  0.50045590    -0.36900
N2527       N  0.75951271  0.54592187  0.46660893    -0.57400
N2528       N  0.81942866  0.53878774  0.50415534    -0.36900
N2529       N  0.75258347  0.54255398  0.53790994    -0.57400
C2530       C  0.67152986  0.54383907  0.48020581     0.26700
C2531       C  0.66789301  0.54332123  0.51910229     0.26700
C2532       C  0.84185689  0.52711340  0.48521308     0.26700
C2533       C  0.83795929  0.52507186  0.52383085     0.26700
C2534       C  0.72880713  0.55493553  0.45174726     0.35300
C2535       C  0.79427791  0.54927199  0.45384173     0.35300
C2536       C  0.71976074  0.55276881  0.55097074     0.35300
C2537       C  0.78484460  0.54533513  0.55272969     0.35300
C2538       C  0.63201939  0.53197439  0.48606980    -0.22200
C2539       C  0.62969081  0.53173638  0.51062991    -0.22200
C2540       C  0.87586916  0.50682071  0.49297059    -0.22200
C2541       C  0.87339781  0.50554188  0.51742545    -0.22200
C2542       C  0.74428042  0.56447410  0.42956305    -0.23200
C2543       C  0.78561461  0.56096715  0.43090362    -0.23200
C2544       C  0.73142559  0.56247023  0.57404644    -0.23200
C2545       C  0.77258426  0.55779820  0.57513643    -0.23200
C2546       C  0.68691926  0.54884470  0.45676823    -0.18600
C2547       C  0.67896294  0.54781122  0.54340634    -0.18600
C2548       C  0.82406894  0.53136056  0.54731883    -0.18600
C2549       C  0.83262852  0.53554526  0.46128670    -0.18600
H2550       H  0.60751385  0.52414243  0.47393178     0.14300
H2551       H  0.60302780  0.52381800  0.52103439     0.14300
H2552       H  0.89988811  0.49421289  0.48215767     0.14300
H2553       H  0.89513036  0.49181783  0.52913108     0.14300
H2554       H  0.72754053  0.57150056  0.41367794     0.12600
H2555       H  0.80661943  0.56471526  0.41626114     0.12600
H2556       H  0.71220736  0.57054072  0.58889677     0.12600
H2557       H  0.79111440  0.56165041  0.59090228     0.12600
H2558       H  0.72164370  0.56462326  0.50153188     0.25900
H2559       H  0.79488843  0.55796395  0.50381236     0.25900
C2560       C  0.99301248  0.74368775  0.24799003    -0.02800
C2561       C  0.98893203  0.79227497  0.28493201    -0.20600
C2562       C  0.98925612  0.78741748  0.26003227    -0.07100
C2563       C  0.49011910  0.82124526  0.24458558     0.13700
C2564       C  0.49143381  0.85942103  0.25649368    -0.20600
C2565       C  0.99154761  0.86697839  0.28275345    -0.07100
C2566       C  0.99151588  0.83084550  0.29625041     0.13700
C2567       C  0.99560849  0.83246545  0.32284528    -0.24000
H2568       H  0.98750734  0.76573149  0.29592633     0.15000
H2569       H  0.48917551  0.88703502  0.24641030     0.15000
C2570       C  0.48431324  0.82244933  0.21800695    -0.23900
H2571       H  0.99811257  0.80174107  0.33046980     0.05300
H2572       H  0.96848083  0.84660130  0.33093569     0.08500
H2573       H  0.02364124  0.85001260  0.32777706     0.08500
H2574       H  0.45396924  0.80983604  0.21309234     0.08500
H2575       H  0.50858192  0.80635930  0.20847908     0.08500
H2576       H  0.48519404  0.85396571  0.21130471     0.05200
C2577       C  0.96482487  0.67399464  0.26474192    -0.20600
C2578       C  0.49946080  0.70212317  0.26258905    -0.07100
C2579       C  0.53332809  0.69345743  0.27797232     0.13700
C2580       C  0.53490014  0.65599217  0.29033234    -0.20600
C2581       C  0.50510191  0.62493849  0.28781670    -0.07100
C2582       C  0.96665062  0.63703687  0.27706359     0.13700
C2583       C  0.93094641  0.60754728  0.27429774    -0.24000
H2584       H  0.93950228  0.67576600  0.25279119     0.15000
H2585       H  0.56090798  0.65019374  0.30151422     0.15000
C2586       C  0.57000429  0.72142892  0.28103427    -0.23900
H2587       H  0.90532607  0.62063400  0.26429379     0.05300
H2588       H  0.91886476  0.59918766  0.29201037     0.08500
H2589       H  0.94034731  0.58004762  0.26432359     0.08500
H2590       H  0.56137487  0.75119817  0.28830850     0.08500
H2591       H  0.58680567  0.72451801  0.26418061     0.08500
H2592       H  0.59230564  0.70935716  0.29379952     0.05200
C2593       C  0.52111273  0.62404572  0.44539288    -0.20600
C2594       C  0.50537506  0.66176253  0.44044880    -0.07100
C2595       C  0.98537166  0.66877269  0.42031630     0.13700
C2596       C  0.98617953  0.63807244  0.40264343    -0.20600
C2597       C  0.50666069  0.60020241  0.40501084    -0.07100
C2598       C  0.52076584  0.59276945  0.42858044     0.13700
C2599       C  0.53588827  0.55229803  0.43692212    -0.24000
H2600       H  0.53452141  0.61925400  0.46267859     0.15000
H2601       H  0.97245432  0.64311492  0.38550032     0.15000
C2602       C  0.96225991  0.70696356  0.41590621    -0.23900
H2603       H  0.54639921  0.55354046  0.45562823     0.05300
H2604       H  0.56202199  0.54233610  0.42608683     0.08500
H2605       H  0.51077719  0.52924593  0.43609240     0.08500
H2606       H  0.98288118  0.73395817  0.41613352     0.08500
H2607       H  0.93869879  0.71072136  0.42986481     0.08500
H2608       H  0.94665900  0.70575284  0.39843961     0.05200
C2609       C  0.99413881  0.87639740  0.40652923    -0.20600
C2610       C  0.02332685  0.89104124  0.39061967    -0.07100
C2611       C  0.56121283  0.88136778  0.39385352     0.13700
C2612       C  0.57297810  0.86567858  0.41575825    -0.20600
C2613       C  0.04753610  0.85425064  0.43267857    -0.07100
C2614       C  0.00560732  0.85719941  0.42728180     0.13700
C2615       C  0.97276062  0.83984315  0.44317973    -0.24000
H2616       H  0.96217444  0.88124340  0.40302720     0.15000
H2617       H  0.60502713  0.86260466  0.41984213     0.15000
C2618       C  0.59286546  0.89175815  0.37546214    -0.23900
H2619       H  0.94183476  0.84432389  0.43579543     0.05300
H2620       H  0.97382199  0.85477172  0.46088296     0.08500
H2621       H  0.97685077  0.80674033  0.44513794     0.08500
H2622       H  0.59048824  0.92373391  0.37011051     0.08500
H2623       H  0.58787668  0.87214739  0.35952436     0.08500
H2624       H  0.62423385  0.88692539  0.38208432     0.05200
C2625       C  0.64594948  0.57965657  0.42465892    -0.20600
C2626       C  0.65943824  0.54449850  0.43567210    -0.07100
C2627       C  0.64948395  0.99930869  0.42659224     0.13700
C2628       C  0.62925700  0.99709401  0.40464631    -0.20600
C2629       C  0.62086019  0.53989370  0.39043720    -0.07100
C2630       C  0.62764764  0.57810822  0.40203809     0.13700
C2631       C  0.61584722  0.61755745  0.39097785    -0.24000
H2632       H  0.65146695  0.60870604  0.43342895     0.15000
H2633       H  0.62259532  0.96767453  0.39676526     0.15000
C2634       C  0.66337237  0.96090675  0.43796738    -0.23900
H2635       H  0.62340101  0.64406465  0.40264746     0.05300
H2636       H  0.58266282  0.61785052  0.38759445     0.08500
H2637       H  0.63259357  0.62165191  0.37404421     0.08500
H2638       H  0.64904995  0.95772733  0.45569273     0.08500
H2639       H  0.69703650  0.96187198  0.43997133     0.08500
H2640       H  0.65489771  0.93359864  0.42716747     0.05200
C2641       C  0.90739577  0.04524757  0.40971911    -0.20600
C2642       C  0.90390506  0.00608898  0.39949293    -0.07100
C2643       C  0.87878925  0.97666790  0.41100036     0.13700
C2644       C  0.85857870  0.98716782  0.43208731    -0.20600
C2645       C  0.86193537  0.02623039  0.44200617    -0.07100
C2646       C  0.88676166  0.05568144  0.43072304     0.13700
C2647       C  0.89110896  0.09862525  0.43997797    -0.24000
H2648       H  0.92604715  0.06823164  0.40118320     0.15000
H2649       H  0.83597015  0.46430105  0.43977838     0.15000
C2650       C  0.87158196  0.93446613  0.40101335    -0.23900
H2651       H  0.92372615  0.10578386  0.44363412     0.05300
H2652       H  0.87831276  0.60014404  0.45863387     0.08500
H2653       H  0.87994007  0.11986197  0.42644388     0.08500
H2654       H  0.89555886  0.41686772  0.39885541     0.08500
H2655       H  0.85937193  0.93615057  0.38270580     0.08500
H2656       H  0.84475058  0.41679901  0.41017211     0.05200
C2657       C  0.64855443  0.00745894  0.57735776    -0.20600
C2658       C  0.64801679  0.54474160  0.56278965    -0.07100
C2659       C  0.63298395  0.57996978  0.57408617     0.13700
C2660       C  0.61407767  0.57690166  0.59639424    -0.20600
C2661       C  0.60878329  0.53933445  0.60763414    -0.07100
C2662       C  0.62844839  0.00511520  0.59933558     0.13700
C2663       C  0.63072128  0.96596131  0.61271482    -0.24000
H2664       H  0.66564777  0.98171584  0.57098505     0.15000
H2665       H  0.60169065  0.60393750  0.60457638     0.15000
C2666       C  0.63785120  0.62144421  0.56342937    -0.23900
H2667       H  0.61759229  0.94057831  0.60194570     0.05300
H2668       H  0.61426411  0.96687193  0.62981292     0.08500
H2669       H  0.66311405  0.95938063  0.61646319     0.08500
H2670       H  0.65220054  0.62064816  0.54563158     0.08500
H2671       H  0.65701668  0.64108653  0.57525910     0.08500
H2672       H  0.60754531  0.63530642  0.56156456     0.05200
C2673       C  0.89344426  0.54369466  0.60042098    -0.20600
C2674       C  0.89059867  0.01447035  0.61170102    -0.07100
C2675       C  0.86085692  0.98618899  0.60300711     0.13700
C2676       C  0.84162484  0.99348988  0.58127790    -0.20600
C2677       C  0.85178365  0.02768427  0.56776149    -0.07100
C2678       C  0.87680020  0.55052119  0.57800648     0.13700
C2679       C  0.88706504  0.58937768  0.56533806    -0.24000
H2680       H  0.91323702  0.56693247  0.60810780     0.15000
H2681       H  0.81785958  0.97279291  0.57488915     0.15000
C2682       C  0.84831592  0.94884894  0.61655954    -0.23900
H2683       H  0.90877994  0.60895971  0.57565170     0.05300
H2684       H  0.85892353  0.60673074  0.56239816     0.08500
H2685       H  0.90134954  0.58228431  0.54795676     0.08500
H2686       H  0.83897244  0.95760338  0.63481261     0.08500
H2687       H  0.87380740  0.92733313  0.61722264     0.08500
H2688       H  0.82214800  0.93249344  0.60803041     0.05200
C2689       C  0.52156833  0.63349981  0.55927595    -0.20600
C2690       C  0.50914996  0.67301918  0.56377099    -0.07100
C2691       C  0.99567162  0.68484672  0.58781601     0.13700
C2692       C  0.99316049  0.65458836  0.60531849    -0.20600
C2693       C  0.50269129  0.61302013  0.59934844    -0.07100
C2694       C  0.51654271  0.60304151  0.57596380     0.13700
C2695       C  0.52451265  0.56013632  0.56743016    -0.24000
H2696       H  0.53417465  0.62602120  0.54201443     0.15000
H2697       H  0.98170960  0.66212687  0.62282969     0.15000
C2698       C  0.97868832  0.72580881  0.59387275    -0.23900
H2699       H  0.53947698  0.55930906  0.54975406     0.05300
H2700       H  0.49519209  0.54296762  0.56571641     0.08500
H2701       H  0.54447191  0.54419164  0.57975700     0.08500
H2702       H  0.97865448  0.74650820  0.57857673     0.08500
H2703       H  0.99666400  0.74020358  0.60849966     0.08500
H2704       H  0.94655072  0.72201471  0.59976080     0.05200
C2705       C  0.01030511  0.85708100  0.57313391    -0.20600
C2706       C  0.04181260  0.87143970  0.55821535    -0.07100
C2707       C  0.55283414  0.90901158  0.56258720     0.13700
C2708       C  0.53906196  0.93170175  0.58212671    -0.20600
C2709       C  0.01687826  0.91677103  0.59752609    -0.07100
C2710       C  0.99863349  0.87879553  0.59320963     0.13700
C2711       C  0.96629803  0.86172704  0.60953617    -0.24000
H2712       H  0.99574367  0.82786223  0.56949448     0.15000
H2713       H  0.55093812  0.96228227  0.58505428     0.15000
C2714       C  0.58653349  0.92721711  0.54773407    -0.23900
H2715       H  0.95474195  0.83156658  0.60329546     0.05300
H2716       H  0.94015694  0.88256766  0.61054115     0.08500
H2717       H  0.97916955  0.85811781  0.62756748     0.08500
H2718       H  0.57591584  0.95546403  0.53946621     0.08500
H2719       H  0.59754739  0.90652337  0.53364799     0.08500
H2720       H  0.61309366  0.93456720  0.55917866     0.05200
C2721       C  0.60087251  0.76360526  0.21038028    -0.20600
C2722       C  0.61012300  0.72625680  0.19974834    -0.07100
C2723       C  0.58207119  0.69376000  0.20358281     0.13700
C2724       C  0.54651196  0.70001466  0.21772193    -0.20600
C2725       C  0.53726118  0.73777784  0.22903518    -0.07100
C2726       C  0.56929721  0.76848734  0.22694608     0.13700
C2727       C  0.57808282  0.80410256  0.24367000    -0.24000
H2728       H  0.62181056  0.78910885  0.20798367     0.15000
H2729       H  0.52591756  0.67442936  0.22042651     0.15000
C2730       C  0.58934313  0.65238353  0.19304322    -0.23900
H2731       H  0.61138046  0.80692926  0.24720284     0.05300
H2732       H  0.56580744  0.80077161  0.26161729     0.08500
H2733       H  0.56902204  0.83293782  0.23547817     0.08500
H2734       H  0.61815996  0.64024153  0.20007883     0.08500
H2735       H  0.59127875  0.65440324  0.17343698     0.08500
H2736       H  0.56429230  0.63057355  0.19740767     0.05200
C2737       C  0.91449576  0.74613299  0.24715454    -0.20600
C2738       C  0.95076864  0.73980878  0.23352913    -0.07100
C2739       C  0.94406238  0.73200192  0.20864288     0.13700
C2740       C  0.90382493  0.73161876  0.19930452    -0.20600
C2741       C  0.86859622  0.73884957  0.21302776    -0.07100
C2742       C  0.87455454  0.74573885  0.23755519     0.13700
C2743       C  0.83914482  0.75311293  0.25395390    -0.24000
H2744       H  0.91756539  0.75128830  0.26607790     0.15000
H2745       H  0.89993421  0.72583433  0.18048653     0.15000
C2746       C  0.97721689  0.72397426  0.19075085    -0.23900
H2747       H  0.84907986  0.75707516  0.27267437     0.05300
H2748       H  0.81750752  0.72682251  0.25312077     0.08500
H2749       H  0.82340233  0.78113985  0.24881453     0.08500
H2750       H  0.98889653  0.69310100  0.19311102     0.08500
H2751       H  0.00157823  0.74757169  0.19143851     0.08500
H2752       H  0.96568316  0.72426356  0.17224828     0.05200
C2753       C  0.76761312  0.59244338  0.07169170    -0.20600
C2754       C  0.79194539  0.60863317  0.05343773    -0.07100
C2755       C  0.80279759  0.65037616  0.05433285     0.13700
C2756       C  0.78814566  0.67451895  0.07310659    -0.20600
C2757       C  0.76799088  0.65717781  0.09260168    -0.07100
C2758       C  0.75744855  0.61539159  0.09175819     0.13700
C2759       C  0.73473461  0.59465249  0.11164745    -0.24000
H2760       H  0.75815569  0.56075354  0.07075989     0.15000
H2761       H  0.79423116  0.70677294  0.07302887     0.15000
C2762       C  0.83125466  0.67001772  0.03670769    -0.23900
H2763       H  0.75373971  0.59507727  0.12791890     0.05300
H2764       H  0.72739838  0.56235834  0.10730778     0.08500
H2765       H  0.70562368  0.61020694  0.11519966     0.08500
H2766       H  0.84293700  0.64856490  0.02320296     0.08500
H2767       H  0.85821992  0.68266389  0.04621243     0.08500
H2768       H  0.81556371  0.69490320  0.02758300     0.05200
C2769       C  0.69549367  0.86542026  0.10667663    -0.20600
C2770       C  0.72950479  0.87144719  0.12168061    -0.07100
C2771       C  0.75865577  0.90199836  0.11545135     0.13700
C2772       C  0.75489582  0.92242230  0.09369771    -0.20600
C2773       C  0.72297106  0.91321175  0.07774179    -0.07100
C2774       C  0.69219284  0.88537869  0.08480578     0.13700
C2775       C  0.65574179  0.87666778  0.06923174    -0.24000
H2776       H  0.67211573  0.84342644  0.11143859     0.15000
H2777       H  0.77753645  0.94523013  0.08883549     0.15000
C2778       C  0.79355723  0.91375555  0.13170333    -0.23900
H2779       H  0.63409659  0.85469484  0.07748550     0.05300
H2780       H  0.66563722  0.86354503  0.05200798     0.08500
H2781       H  0.63935588  0.90520685  0.06604452     0.08500
H2782       H  0.81581779  0.88899988  0.13261212     0.08500
H2783       H  0.78172689  0.92076760  0.14973013     0.08500
H2784       H  0.81034981  0.94109445  0.12532535     0.05200
C2785       C  0.81843741  0.62448528  0.89651024    -0.20600
C2786       C  0.77855738  0.62826524  0.88825626    -0.07100
C2787       C  0.74702898  0.60419943  0.89806027     0.13700
C2788       C  0.75540394  0.58080278  0.91805279    -0.20600
C2789       C  0.79459411  0.58129032  0.92808852    -0.07100
C2790       C  0.82681778  0.60200623  0.91668476     0.13700
C2791       C  0.86962390  0.60155560  0.92630720    -0.24000
H2792       H  0.84260807  0.64146666  0.88801913     0.15000
H2793       H  0.73129347  0.56286110  0.92620096     0.15000
C2794       C  0.70508093  0.60284930  0.88723393    -0.23900
H2795       H  0.89099793  0.61997530  0.91537239     0.05300
H2796       H  0.88078137  0.57003759  0.92647733     0.08500
H2797       H  0.87007635  0.61407731  0.94468033     0.08500
H2798       H  0.68410966  0.58220087  0.89704146     0.08500
H2799       H  0.70714047  0.59164197  0.86862821     0.08500
H2800       H  0.69160071  0.63330208  0.88721241     0.05200
C2801       C  0.77545554  0.84054377  0.92044612    -0.20600
C2802       C  0.73835904  0.82887426  0.90975248    -0.07100
C2803       C  0.70148375  0.83585011  0.92202981     0.13700
C2804       C  0.70244136  0.85499266  0.94433854    -0.20600
C2805       C  0.73899713  0.87077640  0.95373707    -0.07100
C2806       C  0.77613195  0.86238980  0.94208912     0.13700
C2807       C  0.81608674  0.87806374  0.95203576    -0.24000
H2808       H  0.80376266  0.83363150  0.91154486     0.15000
H2809       H  0.67403419  0.86239460  0.95307476     0.15000
C2810       C  0.66075749  0.82573904  0.91102240    -0.23900
H2811       H  0.84222582  0.86875260  0.94083626     0.05300
H2812       H  0.82054539  0.86586476  0.97007837     0.08500
H2813       H  0.81618001  0.91171292  0.95306206     0.08500
H2814       H  0.63503608  0.83535047  0.92247252     0.08500
H2815       H  0.65773220  0.79272898  0.90831166     0.08500
H2816       H  0.65809063  0.84120580  0.89374907     0.05200
C2817       C  0.96462744  0.68263159  0.73805444    -0.20600
C2818       C  0.49159721  0.71244937  0.73564430    -0.07100
C2819       C  0.52581148  0.70418486  0.72019080     0.13700
C2820       C  0.52943430  0.66588372  0.70829148    -0.20600
C2821       C  0.50056110  0.63417677  0.71063524    -0.07100
C2822       C  0.96797838  0.64447405  0.72643182     0.13700
C2823       C  0.93477787  0.61320871  0.73128241    -0.24000
H2824       H  0.93920891  0.68572686  0.74995851     0.15000
H2825       H  0.55584640  0.66039055  0.69724563     0.15000
C2826       C  0.56067626  0.73379694  0.71631996    -0.23900
H2827       H  0.91138768  0.62455093  0.74383403     0.05300
H2828       H  0.94801739  0.58593525  0.73935469     0.08500
H2829       H  0.91868400  0.60497277  0.71455439     0.08500
H2830       H  0.55005133  0.76487561  0.71359186     0.08500
H2831       H  0.57843659  0.72586627  0.70019453     0.08500
H2832       H  0.58219216  0.73252480  0.73137506     0.05200
C2833       C  0.98773106  0.83391449  0.75155892    -0.20600
C2834       C  0.98661906  0.79771261  0.73734512    -0.07100
C2835       C  0.98242723  0.80361613  0.71237434     0.13700
C2836       C  0.98634294  0.84328058  0.70314486    -0.20600
C2837       C  0.99058203  0.87857293  0.71759037    -0.07100
C2838       C  0.99059999  0.87333821  0.74229736     0.13700
C2839       C  0.99491014  0.90892579  0.75922144    -0.24000
H2840       H  0.98845811  0.83135583  0.77055226     0.15000
H2841       H  0.98411284  0.84668713  0.68409958     0.15000
C2842       C  0.97106582  0.77090584  0.69440820    -0.23900
H2843       H  0.99650839  0.89917424  0.77796295     0.05300
H2844       H  0.96822235  0.92882681  0.75761397     0.08500
H2845       H  0.51548670  0.92312036  0.75834057     0.08500
H2846       H  0.95844835  0.74285183  0.70197392     0.08500
H2847       H  0.49540524  0.76202991  0.68355804     0.08500
H2848       H  0.94634697  0.78188002  0.68283606     0.05200
C2849       C  0.55726970  0.78476594  0.76210066    -0.20600
C2850       C  0.52659337  0.75502447  0.76728712    -0.07100
C2851       C  0.53783173  0.72564933  0.78459046     0.13700
C2852       C  0.57516883  0.73029514  0.79725909    -0.20600
C2853       C  0.60376384  0.76135964  0.79219875    -0.07100
C2854       C  0.59556792  0.78643785  0.77291504     0.13700
C2855       C  0.62805584  0.81152777  0.76076868    -0.24000
H2856       H  0.55403729  0.80505855  0.74742675     0.15000
H2857       H  0.58263218  0.70850385  0.81072533     0.15000
C2858       C  0.51218885  0.68867504  0.79036162    -0.23900
H2859       H  0.61663529  0.84229931  0.75753977     0.05300
H2860       H  0.63470456  0.79753971  0.74320409     0.08500
H2861       H  0.65694861  0.81373012  0.77073414     0.08500
H2862       H  0.48175732  0.68860926  0.78226924     0.08500
H2863       H  0.50761173  0.68685699  0.80982115     0.08500
H2864       H  0.52817128  0.66106072  0.78427707     0.05200
C2865       C  0.91034287  0.75555610  0.75092243    -0.20600
C2866       C  0.94599398  0.75796559  0.76530831    -0.07100
C2867       C  0.93854127  0.76704365  0.79006315     0.13700
C2868       C  0.89812645  0.76581398  0.79906758    -0.20600
C2869       C  0.86344096  0.76072403  0.78458090    -0.07100
C2870       C  0.87013517  0.75694897  0.75988567     0.13700
C2871       C  0.83523190  0.75488872  0.74251797    -0.24000
H2872       H  0.91398261  0.75198089  0.73200391     0.15000
H2873       H  0.89369698  0.77044170  0.81796208     0.15000
C2874       C  0.96965702  0.78189561  0.80815955    -0.23900
H2875       H  0.84603911  0.75463163  0.72384855     0.05300
H2876       H  0.81580312  0.78181410  0.74498272     0.08500
H2877       H  0.81685118  0.72668346  0.74512079     0.08500
H2878       H  0.97371379  0.75856780  0.82190103     0.08500
H2879       H  0.95817539  0.80963513  0.81713083     0.08500
H2880       H  0.99943601  0.79148394  0.80124042     0.05200
C2881       C  0.84646436  0.52342434  0.71245372    -0.20600
C2882       C  0.85917532  0.98655734  0.70644776    -0.07100
C2883       C  0.82782141  0.95622895  0.70656031     0.13700
C2884       C  0.79025543  0.96315751  0.71892598    -0.20600
C2885       C  0.78030340  0.50078825  0.73011945    -0.07100
C2886       C  0.81144642  0.53227032  0.72582199     0.13700
C2887       C  0.81300541  0.57575552  0.73505305    -0.24000
H2888       H  0.86798287  0.54779277  0.70863543     0.15000
H2889       H  0.76746286  0.93893848  0.71906063     0.15000
C2890       C  0.83369721  0.91635624  0.69392633    -0.23900
H2891       H  0.84134659  0.59271836  0.73028036     0.05300
H2892       H  0.81377085  0.57722168  0.75455106     0.08500
H2893       H  0.78938034  0.59389160  0.72673209     0.08500
H2894       H  0.85984262  0.90047886  0.70178201     0.08100
H2895       H  0.83964849  0.92163852  0.67482933     0.08500
H2896       H  0.80629145  0.89620541  0.69535915     0.05200
C2897       C  0.62299038  0.51248077  0.73673428    -0.20600
C2898       C  0.61863234  0.50067354  0.71291859    -0.07100
C2899       C  0.65460676  0.48782366  0.70102092     0.13700
C2900       C  0.69283827  0.48793299  0.71295610    -0.20600
C2901       C  0.69804754  0.50002060  0.73703232    -0.07100
C2902       C  0.66131748  0.01165837  0.74864953     0.13700
C2903       C  0.65749011  0.02068166  0.77502806    -0.24000
H2904       H  0.59700957  0.02218151  0.74615769     0.15000
H2905       H  0.71894034  0.47932499  0.70266679     0.15000
C2906       C  0.65354394  0.47371379  0.67547127    -0.23900
H2907       H  0.65340008  0.05369223  0.77803404     0.05300
H2908       H  0.68498273  0.52228151  0.78537607     0.08500
H2909       H  0.63045615  0.00419251  0.78228600     0.08500
H2910       H  0.64563812  0.49923921  0.66383443     0.08500
H2911       H  0.63092871  0.44843447  0.67326584     0.08500
H2912       H  0.68351001  0.46243833  0.66939279     0.05200
C2913       C  0.76509996  0.54670703  0.78590528    -0.20600
C2914       C  0.74578014  0.54388555  0.76331035    -0.07100
C2915       C  0.73042723  0.58137974  0.75415474     0.13700
C2916       C  0.73595893  0.61797512  0.76698985    -0.20600
C2917       C  0.75768897  0.62086930  0.78832230    -0.07100
C2918       C  0.77206677  0.58446647  0.79804797     0.13700
C2919       C  0.79389701  0.58509471  0.82148016    -0.24000
H2920       H  0.77600450  0.51950727  0.79400549     0.15000
H2921       H  0.72423349  0.64556840  0.75955024     0.15000
C2922       C  0.71219095  0.58597071  0.72960477    -0.23900
H2923       H  0.80337295  0.55429509  0.82661664     0.05300
H2924       H  0.77339214  0.59680624  0.83550839     0.08500
H2925       H  0.82167972  0.60476922  0.82044871     0.08500
H2926       H  0.67852314  0.58315444  0.73028070     0.08500
H2927       H  0.72514632  0.56441232  0.71656344     0.08500
H2928       H  0.71943499  0.61647597  0.72238127     0.05200
C2929       C  0.70511280  0.93711321  0.77011601    -0.20600
C2930       C  0.74225502  0.95888878  0.76557378    -0.07100
C2931       C  0.77785702  0.93859703  0.77411393     0.13700
C2932       C  0.77487728  0.89791654  0.78278396    -0.20600
C2933       C  0.73697491  0.87820039  0.78687188    -0.07100
C2934       C  0.70214377  0.90119247  0.78296263     0.13700
C2935       C  0.66117088  0.89127601  0.79384438    -0.24000
H2936       H  0.67618413  0.94711114  0.76437661     0.15000
H2937       H  0.80236225  0.88260067  0.78790487     0.15000
C2938       C  0.81943115  0.95854575  0.77552495    -0.23900
H2939       H  0.63698250  0.89216256  0.78025562     0.05300
H2940       H  0.65417628  0.91498122  0.80733020     0.08500
H2941       H  0.65977497  0.86172276  0.80276776     0.08500
H2942       H  0.81842927  0.99160790  0.77338068     0.08500
H2943       H  0.83993300  0.94498640  0.76204793     0.08500
H2944       H  0.83257466  0.95387647  0.79339675     0.05200
C2945       C  0.61466123  0.73141723  0.05054358    -0.20600
C2946       C  0.57674080  0.71304754  0.05497164    -0.07100
C2947       C  0.56919944  0.69580353  0.07753006     0.13700
C2948       C  0.59811167  0.70167591  0.09580656    -0.20600
C2949       C  0.63449739  0.72363129  0.09179054    -0.07100
C2950       C  0.64377271  0.73657190  0.06838178     0.13700
C2951       C  0.68437124  0.75580038  0.06164123    -0.24000
H2952       H  0.62076402  0.74394483  0.03318815     0.15000
H2953       H  0.59162383  0.69020054  0.11336079     0.15000
C2954       C  0.53083938  0.67179270  0.08288190    -0.23900
H2955       H  0.68722115  0.75969362  0.04217293     0.05300
H2956       H  0.70960422  0.73620339  0.06725494     0.08500
H2957       H  0.68796915  0.78647275  0.06976637     0.08500
H2958       H  0.53894580  0.64112051  0.08898255     0.08500
H2959       H  0.51088717  0.66785275  0.06712644     0.08500
H2960       H  0.51345975  0.68731883  0.09713007     0.05200
C2961       C  0.88555078  0.75288763  0.06582403    -0.20600
C2962       C  0.87930820  0.78454865  0.04991668    -0.07100
C2963       C  0.84787403  0.81213442  0.05452109     0.13700
C2964       C  0.82244290  0.80624200  0.07436825    -0.20600
C2965       C  0.82942707  0.77503119  0.09061449    -0.07100
C2966       C  0.86225561  0.74855252  0.08645010     0.13700
C2967       C  0.87336707  0.71553192  0.10343151    -0.24000
H2968       H  0.91031931  0.73226954  0.06252239     0.15000
H2969       H  0.79802792  0.82721511  0.07775572     0.15000
C2970       C  0.84308707  0.84932383  0.03965895    -0.23900
H2971       H  0.89848809  0.69667468  0.09646800     0.05300
H2972       H  0.84684810  0.69502134  0.10666147     0.08500
H2973       H  0.88389892  0.72923965  0.12048504     0.08500
H2974       H  0.83222028  0.84075620  0.02165276     0.08500
H2975       H  0.87272352  0.86597296  0.03829449     0.08500
H2976       H  0.82108573  0.87052689  0.04773371     0.05200
C2977       C  0.62463183  0.71625813  0.93514019    -0.20600
C2978       C  0.58283042  0.71732715  0.93105503    -0.07100
C2979       C  0.56881834  0.71129978  0.90732837     0.13700
C2980       C  0.59678123  0.71379104  0.88838172    -0.20600
C2981       C  0.63885749  0.71622381  0.89251931    -0.07100
C2982       C  0.65257635  0.71296750  0.91647358     0.13700
C2983       C  0.69620500  0.70760686  0.92351018    -0.24000
H2984       H  0.63591714  0.71986031  0.95311207     0.15000
H2985       H  0.58562147  0.71383203  0.87029486     0.15000
C2986       C  0.52480792  0.70221436  0.90139892    -0.23900
H2987       H  0.69880109  0.69820626  0.94228908     0.05300
H2988       H  0.71363007  0.73632467  0.92235895     0.08500
H2989       H  0.70942156  0.68287095  0.91299368     0.08500
H2990       H  0.51230472  0.72691999  0.89057272     0.08500
H2991       H  0.50590397  0.69830096  0.91747468     0.08500
H2992       H  0.52251991  0.67337731  0.89105050     0.05200
C2993       C  0.89295298  0.80909320  0.90678024    -0.20600
C2994       C  0.90402366  0.78093556  0.92387048    -0.07100
C2995       C  0.90071099  0.73892426  0.91843040     0.13700
C2996       C  0.88514451  0.72630465  0.89642001    -0.20600
C2997       C  0.87111179  0.75417626  0.88008000    -0.07100
C2998       C  0.87665115  0.79621365  0.88490024     0.13700
C2999       C  0.86559392  0.82808246  0.86724515    -0.24000
H3000       H  0.89730458  0.84124369  0.91047470     0.15000
H3001       H  0.88153116  0.69431792  0.89272069     0.15000
C3002       C  0.91201037  0.70631859  0.93559907    -0.23900
H3003       H  0.89283223  0.84747842  0.86347715     0.05300
H3004       H  0.84120298  0.84738488  0.87461537     0.08500
H3005       H  0.85503481  0.81479332  0.85012117     0.08500
H3006       H  0.88412392  0.68868171  0.94041750     0.08500
H3007       H  0.92603909  0.71811390  0.95218982     0.08500
H3008       H  0.93399995  0.68552365  0.92711542     0.05200
C3009       C  0.86623245  0.99395857  0.26719096    -0.20600
C3010       C  0.86595233  0.99338974  0.29195517    -0.07100
C3011       C  0.82802969  0.99957124  0.30350648     0.13700
C3012       C  0.79176391  0.00347532  0.28987758    -0.20600
C3013       C  0.79123530  0.99790548  0.26482046    -0.07100
C3014       C  0.83068223  0.99604902  0.25355328     0.13700
C3015       C  0.83781056  0.49799030  0.22400490    -0.24000
H3016       H  0.89505790  0.99098957  0.25802711     0.15000
H3017       H  0.76375271  0.00945030  0.29917466     0.15000
C3018       C  0.82536897  0.00220389  0.33012963    -0.23900
H3019       H  0.87065163  0.49601848  0.21945177     0.05300
H3020       H  0.82808709  0.52657053  0.21605372     0.08500
H3021       H  0.82250382  0.96774003  0.21889573     0.08500
H3022       H  0.84532626  0.53483104  0.33262191     0.08500
H3023       H  0.83426997  0.97297512  0.33793932     0.08500
H3024       H  0.79391794  0.00857921  0.33622018     0.05200
C3025       C  0.63505393  0.51772782  0.26546496    -0.20600
C3026       C  0.63076302  0.49920269  0.28742610    -0.07100
C3027       C  0.66271867  0.97213598  0.29716593     0.13700
C3028       C  0.69989064  0.97164674  0.28395566    -0.20600
C3029       C  0.70664700  0.49542370  0.25995127    -0.07100
C3030       C  0.67022519  0.51469383  0.25123168     0.13700
C3031       C  0.66371757  0.53128421  0.22663996    -0.24000
H3032       H  0.60936880  0.53424731  0.25868976     0.15000
H3033       H  0.72322025  0.95155582  0.28969614     0.15000
C3034       C  0.65777023  0.94509503  0.31830934    -0.23900
H3035       H  0.63259098  0.52300052  0.22019844     0.05300
H3036       H  0.68336931  0.51857164  0.21295728     0.08500
H3037       H  0.66650773  0.56489169  0.22707359     0.08500
H3038       H  0.63117168  0.92416934  0.31561739     0.08500
H3039       H  0.65296936  0.96377432  0.33455635     0.08500
H3040       H  0.68512952  0.92649782  0.32114683     0.05200
C3041       C  0.74805581  0.57251256  0.24531381    -0.20600
C3042       C  0.75159514  0.53623570  0.23125832    -0.07100
C3043       C  0.75445950  0.54272013  0.20607097     0.13700
C3044       C  0.75092784  0.58245250  0.19690188    -0.20600
C3045       C  0.74604606  0.61764292  0.21117238    -0.07100
C3046       C  0.74488057  0.61201091  0.23591139     0.13700
C3047       C  0.73982863  0.64737673  0.25274345    -0.24000
H3048       H  0.74602296  0.56972059  0.26438063     0.15000
H3049       H  0.75200086  0.58579507  0.17781339     0.15000
C3050       C  0.76052480  0.51032108  0.18735545    -0.23900
H3051       H  0.74038453  0.63788751  0.27155474     0.05300
H3052       H  0.71010611  0.66181748  0.24954808     0.08500
H3053       H  0.76501638  0.66985267  0.25014883     0.08500
H3054       H  0.73185537  0.50515031  0.17722012     0.08500
H3055       H  0.77115828  0.48159619  0.19403018     0.08500
H3056       H  0.78470122  0.52042004  0.17481796     0.05200
C3057       C  0.72054825  0.93674912  0.22100362    -0.20600
C3058       C  0.75076179  0.94899626  0.23761169    -0.07100
C3059       C  0.77823421  0.91666162  0.24366885     0.13700
C3060       C  0.78377276  0.88332754  0.22808819    -0.20600
C3061       C  0.75636545  0.87395032  0.20991173    -0.07100
C3062       C  0.72272556  0.90019533  0.20731770     0.13700
C3063       C  0.68919626  0.89064834  0.18980393    -0.24000
H3064       H  0.69478507  0.95589020  0.21854618     0.15000
H3065       H  0.80677348  0.86127930  0.23217590     0.15000
C3066       C  0.79715490  0.91029998  0.26775121    -0.23900
H3067       H  0.66573087  0.91444589  0.18985631     0.05300
H3068       H  0.67362260  0.86154024  0.19421207     0.08500
H3069       H  0.70210778  0.88899916  0.17171021     0.08500
H3070       H  0.78335612  0.92810115  0.28206378     0.08500
H3071       H  0.83061853  0.91548434  0.26699862     0.08500
H3072       H  0.79163421  0.87842636  0.27330496     0.05200
loop_ 
_geom_bond_atom_site_label_1 
_geom_bond_atom_site_label_2 
_geom_bond_distance 
_geom_bond_site_symmetry_2 
_ccdc_geom_bond_type 
C1          C725   1.616       .  S
C1          C738   1.596       .  S
C1         C1477   1.590       .  S
C1         C1522   1.615   1_545  S
N2            C7   1.350   1_556  A
N2            C6   1.358       .  A
N2           H34   1.026       .  S
N3           C11   1.350       .  A
N3         C1546   1.348       .  A
N4            C9   1.351   1_556  A
N4            C8   1.353       .  A
N4           H35   1.034       .  S
N5           C13   1.353       .  A
N5         C1548   1.354       .  A
C6           C14   1.384       .  A
C6           C22   1.416       .  A
C7           C23   1.417       .  A
C7           C15   1.389       .  A
C8           C16   1.386       .  A
C8           C25   1.413       .  A
C9           C24   1.414       .  A
C9           C17   1.389       .  A
C10        N1539   1.350   1_455  A
C10          C22   1.401       .  A
C10          C18   1.383       .  A
C11          C25   1.409       .  A
C11          C19   1.385       .  A
C12        N1541   1.351   1_455  A
C12          C20   1.388   1_455  A
C12          C23   1.414       .  A
C13          C21   1.388       .  A
C13          C24   1.420       .  A
C14          C15   1.384   1_556  A
C14          H26   1.082       .  S
C15          H27   1.083       .  S
C16          C17   1.373   1_556  A
C16          H28   1.082       .  S
C17          H29   1.082       .  S
C18        C1555   1.353   1_455  A
C18          H30   1.082       .  S
C19        C1554   1.364       .  A
C19          H31   1.082       .  S
C20        C1557   1.364       .  A
C20          H32   1.082   1_655  S
C21        C1556   1.363       .  A
C21          H33   1.082       .  S
C22         C674   1.493       .  S
C23         C642   1.479       .  S
C24         C658   1.485       .  S
C25         C690   1.481       .  S
C36         C581   1.630       .  S
C36         C597   1.622       .  S
C36         C610   1.579   1_565  S
C36        C1394   1.626       .  S
C37         C530   1.597       .  S
C37         C562   1.609       .  S
C37        C2050   1.620       .  S
C37        C2082   1.598       .  S
N38          C43   1.350   1_554  A
N38          C42   1.354       .  A
N38          H70   1.039       .  S
N39          C46   1.350   1_565  A
N39         C815   1.349       .  A
N40          C45   1.353   1_554  A
N40          C44   1.355       .  A
N40          H71   1.038       .  S
N41          C48   1.354   1_565  A
N41         C817   1.351       .  A
C42          C50   1.388       .  A
C42          C58   1.418       .  A
C43          C59   1.412       .  A
C43          C51   1.385       .  A
C44          C52   1.387       .  A
C44          C61   1.421       .  A
C45          C60   1.421       .  A
C45          C53   1.387   1_556  A
C46          C58   1.415       .  A
C46          C54   1.388       .  A
C47         N807   1.351       .  A
C47          C61   1.413       .  A
C47          C55   1.388       .  A
C48          C56   1.383   1_545  A
C48          C59   1.409       .  A
C49         N809   1.345       .  A
C49          C57   1.391       .  A
C49          C60   1.410       .  A
C50          C51   1.383   1_554  A
C50          H62   1.082       .  S
C51          H63   1.082       .  S
C52          C53   1.388       .  A
C52          H64   1.082       .  S
C53          H65   1.082   1_554  S
C54         C823   1.371   1_545  A
C54          H66   1.082       .  S
C55         C822   1.364       .  A
C55          H67   1.081       .  S
C56         C825   1.365       .  A
C56          H68   1.082       .  S
C57         C824   1.370       .  A
C57          H69   1.083       .  S
C58         C450   1.497       .  S
C59         C485   1.486       .  S
C60         C501   1.490       .  S
C61         C469   1.494       .  S
O72          C80   1.287       .  A
O72         Co92   2.071       .  S
O73          C81   1.285       .  A
O73         Co93   2.080       .  S
O74          C82   1.268       .  A
O74         Co94   1.988       .  S
O75          C83   1.259       .  A
O75         Co95   1.992       .  S
O76          C82   1.281       .  A
O76         Co93   2.053       .  S
O77          C83   1.254       .  A
O77         Co92   1.982       .  S
O78          C81   1.257       .  A
O78         Co95   1.976       .  S
O79          C80   1.271       .  A
O79         Co94   1.914       .  S
C80         C693   1.467       .  S
C81         C629   1.527       .  S
C82         C565   1.528       .  S
C83         C498   1.472       .  S
O84          C97   1.266       .  A
O84         Co92   1.971       .  S
O85          C98   1.259       .  A
O85         Co93   1.987       .  S
O86          C99   1.298       .  A
O86         Co94   2.123       .  S
O87         C100   1.278       .  A
O87         Co95   2.056       .  S
O88         C100   1.257       .  A
O88         Co93   1.969       .  S
O89          C99   1.252       .  A
O89         Co92   1.879       .  S
O90          C97   1.277       .  A
O90         Co95   2.044       .  S
O91          C98   1.269       .  A
O91         Co94   2.031       .  S
Co92         O96   1.999       .  S
Co93         O96   2.052       .  S
Co94         O96   2.078       .  S
Co95         O96   2.087       .  S
C97         C677   1.505       .  S
C98         C613   1.506       .  S
C99         C482   1.483       .  S
C100        C549   1.503       .  S
O101        C109   1.246       .  A
O101       Co121   1.974       .  S
O102        C110   1.274       .  A
O102       Co122   1.841       .  S
O103        C111   1.265       .  A
O103       Co123   1.994       .  S
O104        C112   1.269       .  A
O104       Co124   2.058       .  S
O105        C111   1.269       .  A
O105       Co122   1.963       .  S
O106        C112   1.253       .  A
O106       Co121   1.962       .  S
O107        C110   1.320       .  A
O107       Co124   2.160       .  S
O108        C109   1.276       .  A
O108       Co123   2.068       .  S
C109        C757   1.519       .  S
C110        C645   1.478       .  S
C111        C466   1.500       .  S
C112        C418   1.523       .  S
O113        C126   1.276       .  A
O113       Co121   2.062       .  S
O114        C127   1.274       .  A
O114       Co122   2.030       .  S
O115        C128   1.251       .  A
O115       Co123   1.938       .  S
O116        C129   1.237       .  A
O116       Co124   1.964       .  S
O117        C129   1.246       .  A
O117       Co122   2.056       .  S
O118        C128   1.288       .  A
O118       Co121   2.095       .  S
O119        C126   1.250       .  A
O119       Co124   1.954       .  S
O120        C127   1.264       .  A
O120       Co123   1.966       .  S
Co121       O125   2.088       .  S
Co122       O125   1.997       .  S
Co123       O125   2.086       .  S
Co124       O125   2.135       .  S
C126        C741   1.519       .  S
C127        C661   1.477       .  S
C128        C437   1.522       .  S
C129        C453   1.496       .  S
O130        C138   1.258   1_655  A
O130       Co150   1.985       .  S
O131        C907   1.256   1_545  A
O131       Co151   1.954       .  S
O132        C140   1.291       .  A
O132       Co152   2.118       .  S
O133        C141   1.272       .  A
O133       Co153   2.050       .  S
O134       C1676   1.237       .  A
O134       Co151   1.836       .  S
O135        C909   1.267   1_545  A
O135      Co1686   1.974       .  S
O136        C139   1.272       .  A
O136       Co153   2.035       .  S
O137        C138   1.272       .  A
O137       Co152   2.035       .  S
C138        C517   1.510       .  S
C139        C370   1.494       .  S
C139        O899   1.258       .  A
C140        C389   1.490       .  S
C140       O1670   1.219   1_455  A
C141        C578   1.524       .  S
C141        O903   1.262       .  A
O142       C1691   1.276       .  A
O142       Co918   2.052       .  S
O143        C156   1.293       .  A
O143      Co1687   2.080   1_455  S
O144        C157   1.266       .  A
O144       Co152   1.995       .  S
O145        C158   1.253       .  A
O145       Co153   1.974       .  S
O146        C158   1.249       .  A
O146       Co919   1.980       .  S
O147        C157   1.286       .  A
O147       Co150   2.067   1_455  S
O148        C155   1.252       .  A
O148       Co153   1.950       .  S
O149        C156   1.271       .  A
O149       Co152   1.897       .  S
Co150      O1671   1.971       .  S
Co150       O910   2.063   1_545  S
Co150       O154   2.046       .  S
Co151      O1679   2.088       .  S
Co151       O914   1.984   1_545  S
Co151      O1690   1.968   1_545  S
Co152       O154   2.064   1_455  S
Co153      O2458   2.102       .  S
O154      Co2457   2.115   1_545  S
O154      Co1687   1.994       .  S
C155        C533   1.519       .  S
C155       O1678   1.280       .  A
C156        C357   1.471       .  S
C157        C594   1.538       .  S
C158        C405   1.459       .  S
O159        C167   1.265       .  A
O159       Co179   2.014   1_445  S
O160        C168   1.264       .  A
O160       Co180   1.982       .  S
O161        C169   1.270       .  A
O161       Co181   1.927       .  S
O162        C170   1.258       .  A
O162       Co182   1.988       .  S
O163        C937   1.294       .  A
O163      Co1716   2.070       .  S
O164       C1706   1.275   1_455  A
O164       Co947   2.039   1_455  S
O165        C168   1.259       .  A
O165       Co182   1.963       .  S
O166        C167   1.257       .  A
O166       Co181   2.025       .  S
C167        C722   1.520       .  S
C168        C306   1.450       .  S
C169        C325   1.497       .  S
C169        O931   1.291       .  A
C170        C261   1.513       .  S
C170       O1700   1.274       .  A
O171        C952   1.271       .  A
O171      Co1715   1.997       .  S
O172       C1721   1.247       .  A
O172       Co948   1.857       .  S
O173        C186   1.280       .  A
O173       Co181   2.056       .  S
O174        C187   1.245       .  A
O174       Co182   1.988       .  S
O175        C187   1.251       .  A
O175       Co180   2.008       .  S
O176        C186   1.265   1_655  A
O176       Co179   1.986   1_545  S
O177        C184   1.262       .  A
O177       Co182   1.993       .  S
O178        C185   1.308       .  A
O178       Co181   2.143       .  S
Co179       O932   2.037   1_655  S
Co179      O1707   2.003       .  S
Co179       O951   2.073       .  S
Co180      O1699   2.077       .  S
Co180       O940   1.854       .  S
Co180      O1719   2.013       .  S
Co181       O951   2.101   1_445  S
Co182      O1719   2.125       .  S
O183       Co947   2.076       .  S
O183      Co1716   2.011   1_655  S
O183       Co949   2.100   1_655  S
O183      Co1718   2.130       .  S
C184        C706   1.516       .  S
C184        O939   1.274       .  A
C185        C293   1.489       .  S
C185       O1708   1.246       .  A
C186        C277   1.534       .  S
C187        C338   1.495       .  S
N188        C193   1.352       .  A
N188        C192   1.351       .  A
N188        H220   1.038       .  S
N189        C196   1.345       .  A
N189        C197   1.344       .  A
N190        C195   1.347       .  A
N190        C194   1.349       .  A
N190        H221   1.046       .  S
N191        C198   1.344       .  A
N191        C199   1.343       .  A
C192        C200   1.389       .  A
C192        C208   1.422       .  A
C193        C209   1.417       .  A
C193        C201   1.387       .  A
C194        C202   1.387       .  A
C194        C211   1.410       .  A
C195        C210   1.407       .  A
C195        C203   1.386       .  A
C196        C208   1.407       .  A
C196        C204   1.386       .  A
C197        C211   1.405       .  A
C197        C205   1.387       .  A
C198        C206   1.388       .  A
C198        C209   1.404       .  A
C199        C207   1.386       .  A
C199        C210   1.396       .  A
C200        C201   1.385       .  A
C200        H212   1.082       .  S
C201        H213   1.082       .  S
C202        C203   1.382       .  A
C202        H214   1.082       .  S
C203        H215   1.082       .  S
C204        C205   1.377       .  A
C204        H216   1.082       .  S
C205        H217   1.083       .  S
C206        C207   1.370       .  A
C206        H218   1.082       .  S
C207        H219   1.082       .  S
C208       C1922   1.493       .  S
C209       C1826   1.484       .  S
C210        C309   1.468       .  S
C211        C402   1.487       .  S
N222        C227   1.355       .  A
N222        C226   1.354       .  A
N222        H254   1.044       .  S
N223        C230   1.352       .  A
N223        C231   1.353       .  A
N224        C229   1.353       .  A
N224        C228   1.352       .  A
N224        H255   1.041       .  S
N225        C232   1.349       .  A
N225        C233   1.348       .  A
C226        C234   1.388       .  A
C226        C242   1.423       .  A
C227        C243   1.420       .  A
C227        C235   1.386       .  A
C228        C236   1.387       .  A
C228        C245   1.415       .  A
C229        C244   1.413       .  A
C229        C237   1.386       .  A
C230        C242   1.418       .  A
C230        C238   1.389       .  A
C231        C245   1.412       .  A
C231        C239   1.385       .  A
C232        C240   1.388       .  A
C232        C243   1.408       .  A
C233        C241   1.387       .  A
C233        C244   1.407       .  A
C234        C235   1.385       .  A
C234        H246   1.082       .  S
C235        H247   1.082       .  S
C236        C237   1.382       .  A
C236        H248   1.082   1_545  S
C237        H249   1.082   1_545  S
C238        C239   1.364       .  A
C238        H250   1.081       .  S
C239        H251   1.082       .  S
C240        C241   1.362       .  A
C240        H252   1.082       .  S
C241        H253   1.082       .  S
C242        C322   1.494       .  S
C243        C354   1.487       .  S
C244       C1141   1.482       .  S
C245       C1109   1.489       .  S
C256        C258   1.591       .  S
C256        C434   1.606       .  S
C256       C1810   1.627       .  S
C256       C1957   1.614       .  S
C257        C258   1.412       .  A
C257        C262   1.418       .  A
C257        H264   1.080       .  S
C258       C1795   1.451       .  A
C259        C266   1.512       .  S
C259        C260   1.416       .  A
C259       C1794   1.450       .  A
C260       C1797   1.393       .  A
C260        H265   1.084       .  S
C261        C262   1.423       .  A
C261       C1796   1.396       .  A
C262        C263   1.503       .  S
C263        H267   1.111       .  S
C263        H268   1.109       .  S
C263        H269   1.110       .  S
C266        H270   1.105       .  S
C266        H271   1.101   1_655  S
C266        H272   1.111       .  S
C273        C278   1.412       .  A
C273       C1810   1.430       .  A
C273        H280   1.073       .  S
C274       C1792   1.624       .  S
C274        C275   1.447   1_655  A
C274       C1809   1.428       .  A
C275        C282   1.510       .  S
C275        C276   1.434       .  A
C276        C277   1.410       .  A
C276        H281   1.083       .  S
C277       C1814   1.422   1_455  A
C278        C279   1.515       .  S
C278       C1813   1.419       .  A
C279        H283   1.111       .  S
C279        H284   1.111       .  S
C279        H285   1.110       .  S
C282        H286   1.101       .  S
C282        H287   1.104       .  S
C282        H288   1.111       .  S
C289        C290   1.390       .  A
C289        C294   1.392       .  A
C289        H296   1.085       .  S
C290       C1827   1.422   1_455  A
C290       C1745   1.491       .  S
C291        C298   1.507       .  S
C291        C292   1.410       .  A
C291       C1826   1.418       .  A
C292       C1829   1.403       .  A
C292        H297   1.084       .  S
C293        C294   1.434       .  A
C293       C1828   1.401   1_455  A
C294        C295   1.514       .  S
C295        H299   1.111       .  S
C295        H300   1.104       .  S
C295        H301   1.110       .  S
C298        H302   1.107       .  S
C298        H303   1.110       .  S
C298        H304   1.111       .  S
C305        C306   1.396       .  A
C305        C310   1.394       .  A
C305        H312   1.083       .  S
C306       C1843   1.405       .  A
C307        C314   1.505       .  S
C307        C308   1.403       .  A
C307       C1842   1.409       .  A
C308       C1845   1.402       .  A
C308        H313   1.084       .  S
C309        C310   1.413       .  A
C309       C1844   1.402       .  A
C310        C311   1.510       .  S
C311        H315   1.111       .  S
C311        H316   1.108       .  S
C311        H317   1.110       .  S
C314        H318   1.104       .  S
C314        H319   1.110       .  S
C314        H320   1.111       .  S
C321        C322   1.402       .  A
C321        C326   1.407       .  A
C321        H328   1.084       .  S
C322       C1091   1.412       .  A
C323        C330   1.507       .  S
C323        C324   1.405       .  A
C323       C1090   1.411       .  A
C324       C1093   1.407       .  A
C324        H329   1.078       .  S
C325        C326   1.424       .  A
C325       C1092   1.409       .  A
C326        C327   1.508       .  S
C327        H331   1.111       .  S
C327        H332   1.109       .  S
C327        H333   1.110       .  S
C330        H334   1.109       .  S
C330        H335   1.110       .  S
C330        H336   1.111       .  S
C337        C338   1.407       .  A
C337        C342   1.405       .  A
C337        H344   1.080       .  S
C338        C339   1.423       .  A
C339        C346   1.509       .  S
C339        C340   1.404       .  A
C340        C341   1.400       .  A
C340       H1113   1.084       .  S
C341        C342   1.412       .  A
C341       C1013   1.490       .  S
C342        C343   1.506       .  S
C343        H347   1.110       .  S
C343        H349   1.110       .  S
C343       H1116   1.109       .  S
H345       C1108   1.084       .  S
C346        H351   1.110       .  S
C346       H1118   1.107       .  S
C346       H1120   1.111       .  S
H348       C1111   1.108       .  S
H350       C1114   1.106       .  S
H352       C1114   1.111       .  S
C353        C358   1.406       .  A
C353       C1122   1.405       .  A
C353        H360   1.085       .  S
C354        C355   1.414       .  A
C354       C1121   1.404       .  A
C355        C362   1.505       .  S
C355        C356   1.401       .  A
C356        C357   1.403       .  A
C356        H361   1.085       .  S
C357       C1126   1.413       .  A
C358        C359   1.506       .  S
C358       C1125   1.415       .  A
C359        H363   1.108       .  S
C359        H364   1.105       .  S
C359        H365   1.110       .  S
C362        H366   1.108       .  S
C362        H367   1.110       .  S
C362        H368   1.109       .  S
C369        C374   1.398       .  A
C369       C1138   1.412       .  A
C369        H376   1.081       .  S
C370        C371   1.420       .  A
C370       C1137   1.412       .  A
C371        C378   1.507       .  S
C371        C372   1.407       .  A
C372        C373   1.403       .  A
C372        H377   1.084       .  S
C373       C1142   1.406       .  A
C373       C1012   1.484       .  S
C374        C375   1.508       .  S
C374       C1141   1.405       .  A
C375        H379   1.111       .  S
C375        H380   1.110       .  S
C375        H381   1.110       .  S
C378        H382   1.110       .  S
C378        H383   1.107       .  S
C378        H384   1.111       .  S
C385        C386   1.394       .  A
C385        C390   1.395       .  A
C385        H392   1.085       .  S
C386       C1923   1.423       .  A
C386       C1744   1.495       .  S
C387        C394   1.507       .  S
C387        C388   1.414       .  A
C387       C1922   1.423       .  A
C388       C1925   1.403       .  A
C388        H393   1.084       .  S
C389        C390   1.437       .  A
C389       C1924   1.397       .  A
C390        C391   1.517       .  S
C391        H395   1.112       .  S
C391        H396   1.110       .  S
C391        H397   1.101       .  S
C394        H398   1.108       .  S
C394        H399   1.110       .  S
C394        H400   1.111       .  S
C401        C402   1.409       .  A
C401        C406   1.393       .  A
C401        H408   1.084       .  S
C402       C1939   1.415       .  A
C403        C410   1.506       .  S
C403        C404   1.405       .  A
C403       C1938   1.410       .  A
C404       C1941   1.403       .  A
C404        H409   1.083       .  S
C405        C406   1.405       .  A
C405       C1940   1.402       .  A
C406        C407   1.509       .  S
C407        H411   1.111       .  S
C407        H412   1.108       .  S
C407        H413   1.110       .  S
C410        H414   1.106       .  S
C410        H415   1.110       .  S
C410        H416   1.105       .  S
C417        C418   1.401       .  A
C417        C422   1.406       .  A
C417        H424   1.085       .  S
C418        C419   1.417       .  A
C419        C426   1.505       .  S
C419        C420   1.428       .  A
C420        C421   1.429       .  A
C420        H425   1.082       .  S
C421       C1792   1.609   1_455  S
C421        C422   1.451       .  A
C422        C423   1.518       .  S
C423        H427   1.113       .  S
C423        H428   1.097       .  S
C423        H429   1.109       .  S
C426        H430   1.111       .  S
C426        H431   1.110       .  S
C426        H432   1.111       .  S
C433        C434   1.436       .  A
C433        C438   1.413       .  A
C433        H440   1.083       .  S
C434        C435   1.435       .  A
C435        C442   1.507       .  S
C435        C436   1.421       .  A
C436        C437   1.416       .  A
C436        H441   1.083       .  S
C437        C438   1.408       .  A
C438        C439   1.506       .  S
C439        H443   1.111       .  S
C439        H444   1.109       .  S
C439        H445   1.110       .  S
C442        H446   1.105       .  S
C442        H447   1.106       .  S
C442        H448   1.111       .  S
C449        C450   1.402       .  A
C449        C454   1.407       .  A
C449        H456   1.084       .  S
C450        C451   1.416       .  A
C451        C458   1.508       .  S
C451        C452   1.401       .  A
C452        C453   1.406       .  A
C452        H457   1.084       .  S
C453        C454   1.424       .  A
C454        C455   1.508       .  S
C455        H459   1.106       .  S
C455        H460   1.111       .  S
C455        H461   1.110       .  S
C458        H462   1.109       .  S
C458        H463   1.111       .  S
C458        H464   1.110       .  S
C465        C466   1.410       .  A
C465        C470   1.414       .  A
C465        H472   1.083       .  S
C466        C467   1.429       .  A
C467        C474   1.512       .  S
C467        C468   1.399       .  A
C468        C469   1.396       .  A
C468        H473   1.085       .  S
C469        C470   1.414       .  A
C470        C471   1.505       .  S
C471        H475   1.111       .  S
C471        H476   1.109       .  S
C471        H477   1.110       .  S
C474        H478   1.109       .  S
C474        H479   1.111       .  S
C474        H480   1.111       .  S
C481        C482   1.407       .  A
C481        C486   1.414       .  A
C481        H488   1.083       .  S
C482        C483   1.415       .  A
C483        C490   1.497       .  S
C483        C484   1.395       .  A
C484        C485   1.393       .  A
C484        H489   1.085       .  S
C485        C486   1.413       .  A
C486        C487   1.504       .  S
C487        H491   1.111       .  S
C487        H492   1.110       .  S
C487        H493   1.110       .  S
C490        H494   1.109       .  S
C490        H495   1.109       .  S
C490        H496   1.107       .  S
C497        C498   1.407       .  A
C497        C502   1.408       .  A
C497        H504   1.084       .  S
C498        C499   1.409       .  A
C499        C506   1.510       .  S
C499        C500   1.398       .  A
C500        C501   1.408       .  A
C500        H505   1.085       .  S
C501        C502   1.412       .  A
C502        C503   1.505       .  S
C503        H507   1.109       .  S
C503        H508   1.109       .  S
C503        H509   1.110       .  S
C506        H510   1.111       .  S
C506        H511   1.107       .  S
C506        H512   1.110       .  S
C513        C518   1.416       .  A
C513       C2050   1.423       .  A
C513        H520   1.076       .  S
C514       C1573   1.610       .  S
C514        C515   1.449   1_655  A
C514       C2049   1.422       .  A
C515        C522   1.512       .  S
C515        C516   1.430       .  A
C516        C517   1.405       .  A
C516        H521   1.084       .  S
C517       C2054   1.411   1_455  A
C518        C519   1.513       .  S
C518       C2053   1.426       .  A
C519        H523   1.111       .  S
C519        H524   1.110       .  S
C519        H525   1.110       .  S
C522        H526   1.105       .  S
C522        H527   1.102   1_455  S
C522        H528   1.111       .  S
C529        C530   1.428       .  A
C529        C534   1.412       .  A
C529        H536   1.078       .  S
C530        C531   1.430       .  A
C531        C538   1.510       .  S
C531        C532   1.419       .  A
C532        C533   1.417       .  A
C532        H537   1.084       .  S
C533        C534   1.410       .  A
C534        C535   1.507       .  S
C535        H539   1.111       .  S
C535        H540   1.110       .  S
C535       H2077   1.111       .  S
C538        H542   1.098       .  S
C538        H544   1.111       .  S
C538       H2079   1.110       .  S
H541       C2071   1.111       .  S
H543       C2074   1.111       .  S
C545        C546   1.419       .  A
C545        C550   1.399       .  A
C545        H552   1.077       .  S
C546       C1573   1.599   1_455  S
C546        C547   1.438       .  A
C547        C554   1.508   1_455  S
C547        C548   1.428       .  A
C548        C549   1.409       .  A
C548        H553   1.084       .  S
C549        C550   1.413       .  A
C550        C551   1.509       .  S
C551        H555   1.110       .  S
C551        H556   1.110       .  S
C551        H557   1.104       .  S
C554        H558   1.109       .  S
C554        H559   1.111   1_655  S
C554        H560   1.101       .  S
C561        C562   1.425       .  A
C561        C566   1.415       .  A
C561        H568   1.079       .  S
C562        C563   1.443       .  A
C563        C570   1.511       .  S
C563        C564   1.424       .  A
C564        C565   1.411       .  A
C564        H569   1.084       .  S
C565        C566   1.417       .  A
C566        C567   1.508       .  S
C567        H571   1.111       .  S
C567        H572   1.110       .  S
C567        H573   1.110       .  S
C570        H574   1.109       .  S
C570        H575   1.111       .  S
C570        H576   1.097       .  S
C577        C582   1.404       .  A
C577       C1346   1.392   1_545  A
C577        H584   1.084       .  S
C578        C579   1.416       .  A
C578       C1345   1.394       .  A
C579        C586   1.504       .  S
C579        C580   1.430       .  A
C580       C1349   1.430       .  A
C580        H585   1.082       .  S
C581        C582   1.464   1_565  A
C581       C1348   1.433       .  A
C582        C583   1.521       .  S
C583        H587   1.112       .  S
C583        H588   1.100       .  S
C583        H589   1.101       .  S
C586        H590   1.110       .  S
C586        H591   1.110       .  S
C586        H592   1.111       .  S
C593        C594   1.399       .  A
C593       C1366   1.418       .  A
C593       H1368   1.085       .  S
C594        C595   1.428   1_545  A
C595        C602   1.504       .  S
C595        C596   1.427       .  A
C596        C597   1.418       .  A
C596        H601   1.075       .  S
C597       C1366   1.460   1_565  A
C598        C599   1.514       .  S
C598       C1361   1.417       .  A
C598       C1365   1.446       .  A
C599        H603   1.108       .  S
C599        H605   1.111       .  S
C599       H1372   1.105       .  S
H600       C1361   1.084       .  S
C602        H606   1.110   1_565  S
C602        H607   1.110       .  S
C602        H608   1.111       .  S
H604       C1367   1.100       .  S
C609        C610   1.423       .  A
C609        C614   1.425       .  A
C609        H616   1.081       .  S
C610        C611   1.444       .  A
C611        C618   1.517       .  S
C611        C612   1.406       .  A
C612        C613   1.398       .  A
C612        H617   1.085       .  S
C613        C614   1.417       .  A
C614        C615   1.504       .  S
C615        H619   1.111       .  S
C615        H620   1.110       .  S
C615        H621   1.110       .  S
C618        H622   1.108       .  S
C618        H623   1.106       .  S
C618        H624   1.111       .  S
C625        C626   1.436       .  A
C625        C630   1.415       .  A
C625        H632   1.076       .  S
C626        C804   1.625       .  S
C626        C627   1.441       .  A
C627        C634   1.503       .  S
C627        C628   1.429       .  A
C628        C629   1.411       .  A
C628        H633   1.084       .  S
C629        C630   1.408       .  A
C630        C631   1.503       .  S
C631        H635   1.108       .  S
C631        H636   1.111       .  S
C631        H637   1.110       .  S
C634        H638   1.092       .  S
C634        H639   1.111       .  S
C634        H640   1.111       .  S
C641        C642   1.400       .  A
C641        C646   1.399       .  A
C641        H648   1.085       .  S
C642        C643   1.410       .  A
C643        C650   1.506       .  S
C643        C644   1.400       .  A
C644        C645   1.406       .  A
C644        H649   1.084       .  S
C645        C646   1.420       .  A
C646        C647   1.509       .  S
C647        H651   1.111       .  S
C647        H652   1.108       .  S
C647        H653   1.110       .  S
C650        H654   1.111       .  S
C650        H655   1.108       .  S
C650        H656   1.110       .  S
C657        C658   1.402       .  A
C657        C662   1.397       .  A
C657        H664   1.085       .  S
C658        C659   1.411       .  A
C659        C666   1.508       .  S
C659        C660   1.401       .  A
C660        C661   1.407       .  A
C660        H665   1.082       .  S
C661        C662   1.416       .  A
C662        C663   1.508       .  S
C663        H667   1.111       .  S
C663        H668   1.104       .  S
C663        H669   1.110       .  S
C666        H670   1.111       .  S
C666        H671   1.108       .  S
C666        H672   1.110       .  S
C673        C674   1.396       .  A
C673        C678   1.406       .  A
C673        H680   1.085       .  S
C674        C675   1.415       .  A
C675        C682   1.508       .  S
C675        C676   1.410       .  A
C676        C677   1.406       .  A
C676        H681   1.083       .  S
C677        C678   1.426       .  A
C678        C679   1.499       .  S
C679        H683   1.111       .  S
C679        H684   1.110       .  S
C679        H685   1.099       .  S
C682        H686   1.109       .  S
C682        H687   1.110       .  S
C682        H688   1.110       .  S
C689        C690   1.401       .  A
C689        C694   1.400       .  A
C689        H696   1.084       .  S
C690        C691   1.409       .  A
C691        C698   1.506       .  S
C691        C692   1.402       .  A
C692        C693   1.403       .  A
C692        H697   1.081       .  S
C693        C694   1.413       .  A
C694        C695   1.508       .  S
C695        H699   1.111       .  S
C695        H700   1.109       .  S
C695        H701   1.110       .  S
C698        H702   1.110       .  S
C698        H703   1.110       .  S
C698        H704   1.109       .  S
C705        C706   1.396       .  A
C705        C710   1.402       .  A
C705        H712   1.083       .  S
C706        C707   1.423       .  A
C707        C714   1.505       .  S
C707        C708   1.427       .  A
C708        C709   1.422       .  A
C708        H713   1.077       .  S
C709        C769   1.600       .  S
C709        C710   1.446       .  A
C710       C1479   1.511       .  S
C711       C1478   1.512       .  S
C711        H715   1.111       .  S
C711        H716   1.103       .  S
C711       H1485   1.100   1_545  S
C714        H719   1.110       .  S
C714        H720   1.111       .  S
C714       H1486   1.110       .  S
H717       C1479   1.100       .  S
H718       C1482   1.111       .  S
C721        C722   1.391       .  A
C721        C726   1.409       .  A
C721        H728   1.085       .  S
C722       C1491   1.418   1_545  A
C723        C730   1.505       .  S
C723        C724   1.432       .  A
C723       C1490   1.418       .  A
C724       C1493   1.426       .  A
C724        H729   1.076       .  S
C725        C726   1.460       .  A
C725       C1492   1.424   1_545  A
C726        C727   1.520       .  S
C727        H731   1.111       .  S
C727        H732   1.098       .  S
C727        H733   1.103       .  S
C730        H734   1.110       .  S
C730        H735   1.110       .  S
C730        H736   1.111       .  S
C737        C738   1.433       .  A
C737        C742   1.414       .  A
C737        H744   1.082       .  S
C738        C739   1.439       .  A
C739        C746   1.508       .  S
C739        C740   1.420       .  A
C740        C741   1.415       .  A
C740        H745   1.084       .  S
C741        C742   1.409       .  A
C742        C743   1.506       .  S
C743        H747   1.111       .  S
C743        H748   1.110       .  S
C743        H749   1.109       .  S
C746        H750   1.110       .  S
C746        H751   1.091   1_545  S
C746        H752   1.111       .  S
C753        C754   1.412       .  A
C753        C758   1.426       .  A
C753        H760   1.073       .  S
C754        C769   1.616       .  S
C754        C755   1.455       .  A
C755        C762   1.511       .  S
C755        C756   1.413       .  A
C756        C757   1.391       .  A
C756        H761   1.086       .  S
C757        C758   1.430       .  A
C758        C759   1.507       .  S
C759        H763   1.111       .  S
C759        H764   1.109       .  S
C759        H765   1.106       .  S
C762        H766   1.096       .  S
C762        H767   1.107       .  S
C762        H768   1.112       .  S
C769       C1493   1.623       .  S
C769       C1506   1.598       .  S
N770        C775   1.350   1_556  A
N770        C774   1.354       .  A
N770        H802   1.044       .  S
N771       C2314   1.342       .  A
N771        C779   1.339       .  A
N772        C777   1.350   1_556  A
N772        C776   1.351       .  A
N772        H803   1.045       .  S
N773       C2316   1.352       .  A
N773        C781   1.351       .  A
C774        C782   1.390       .  A
C774        C790   1.426       .  A
C775        C791   1.418       .  A
C775        C783   1.385       .  A
C776        C784   1.388       .  A
C776        C793   1.416       .  A
C777        C792   1.414       .  A
C777        C785   1.387   1_554  A
C778       N2307   1.344   1_455  A
C778        C790   1.409       .  A
C778        C786   1.387       .  A
C779        C793   1.397       .  A
C779        C787   1.387       .  A
C780       N2309   1.351   1_455  A
C780        C788   1.386       .  A
C780        C791   1.413       .  A
C781        C789   1.385       .  A
C781        C792   1.412       .  A
C782        C783   1.387   1_556  A
C782        H794   1.082       .  S
C783        H795   1.082       .  S
C784        C785   1.388       .  A
C784        H796   1.082       .  S
C785        H797   1.082   1_556  S
C786       C2323   1.375   1_455  A
C786        H798   1.082       .  S
C787       C2322   1.375       .  A
C787        H799   1.082       .  S
C788       C2325   1.374   1_455  A
C788        H800   1.082       .  S
C789       C2324   1.373       .  A
C789        H801   1.083       .  S
C790       C1442   1.503       .  S
C791       C1410   1.499       .  S
C792       C1426   1.496       .  S
C793       C1458   1.482       .  S
C804       C1349   1.618       .  S
C804       C1365   1.601       .  S
C804       C1378   1.594       .  S
C805       C2818   1.614       .  S
C805       C1298   1.592       .  S
C805       C2850   1.591       .  S
C805       C1330   1.607       .  S
N806        C811   1.350       .  A
N806        C810   1.345   1_556  A
N806        H838   1.034   1_556  S
N807        C814   1.350       .  A
N808        C813   1.354   1_554  A
N808        C812   1.356       .  A
N808        H839   1.044       .  S
N809        C816   1.349       .  A
C810        C818   1.387       .  A
C810        C826   1.405       .  A
C811        C827   1.409       .  A
C811        C819   1.387       .  A
C812        C820   1.387       .  A
C812        C829   1.423       .  A
C813        C828   1.421       .  A
C813        C821   1.388   1_556  A
C814        C826   1.410       .  A
C814        C822   1.386       .  A
C815        C829   1.409       .  A
C815        C823   1.386       .  A
C816        C824   1.382       .  A
C816        C827   1.403       .  A
C817        C825   1.391       .  A
C817        C828   1.417       .  A
C818        C819   1.381   1_554  A
C818        H830   1.083       .  S
C819        H831   1.082       .  S
C820        C821   1.386       .  A
C820        H832   1.082       .  S
C821        H833   1.082       .  S
C822        H834   1.083       .  S
C823        H835   1.083       .  S
C824        H836   1.082       .  S
C825        H837   1.081       .  S
C826       C1218   1.476       .  S
C827       C1253   1.480       .  S
C828       C1269   1.490       .  S
C829       C1237   1.496       .  S
O840        C848   1.281       .  A
O840       Co860   2.030       .  S
O841        C849   1.289       .  A
O841       Co861   2.078       .  S
O842        C850   1.256       .  A
O842       Co862   1.989       .  S
O843        C851   1.259       .  A
O843       Co863   2.011       .  S
O844        C850   1.271       .  A
O844       Co861   2.045       .  S
O845        C851   1.242       .  A
O845       Co860   1.970       .  S
O846        C849   1.263       .  A
O846       Co863   1.977       .  S
O847        C848   1.279       .  A
O847       Co862   1.945       .  S
C848       C1461   1.470       .  S
C849       C1397   1.520       .  S
C850       C1333   1.521       .  S
C851       C1266   1.478       .  S
O852        C865   1.269       .  A
O852       Co860   1.981       .  S
O853        C866   1.263       .  A
O853       Co861   1.988       .  S
O854        C867   1.285       .  A
O854       Co862   2.097       .  S
O855        C868   1.270       .  A
O855       Co863   2.026       .  S
O856        C868   1.255       .  A
O856       Co861   1.972       .  S
O857        C867   1.248       .  A
O857       Co860   1.900       .  S
O858        C865   1.284       .  A
O858       Co863   2.046       .  S
O859        C866   1.280       .  A
O859       Co862   2.048       .  S
Co860       O864   2.006       .  S
Co861       O864   2.070       .  S
Co862       O864   2.074       .  S
Co863       O864   2.079       .  S
C865       C1445   1.491       .  S
C866       C1381   1.514       .  S
C867       C1250   1.467       .  S
C868       C1317   1.491       .  S
O869        C877   1.248       .  A
O869       Co889   1.986       .  S
O870        C878   1.266       .  A
O870       Co890   1.839       .  S
O871        C879   1.272       .  A
O871       Co891   2.021       .  S
O872        C880   1.265       .  A
O872       Co892   2.039       .  S
O873        C879   1.264       .  A
O873       Co890   1.951       .  S
O874        C880   1.255       .  A
O874       Co889   1.965       .  S
O875        C878   1.322       .  A
O875       Co892   2.190       .  S
O876        C877   1.272       .  A
O876       Co891   2.059       .  S
C877       C1525   1.519       .  S
C878       C1413   1.489       .  S
C879       C1234   1.496       .  S
C880       C1186   1.517       .  S
O881        C894   1.276       .  A
O881       Co889   2.059       .  S
O882        C895   1.276       .  A
O882       Co890   2.052       .  S
O883        C896   1.254       .  A
O883       Co891   1.944       .  S
O884        C897   1.231       .  A
O884       Co892   1.944       .  S
O885        C897   1.242       .  A
O885       Co890   2.043       .  S
O886        C896   1.289       .  A
O886       Co889   2.100       .  S
O887        C894   1.252       .  A
O887       Co892   1.964       .  S
O888        C895   1.261       .  A
O888       Co891   1.961       .  S
Co889       O893   2.100       .  S
Co890       O893   1.992       .  S
Co891       O893   2.106       .  S
Co892       O893   2.166       .  S
C894       C1509   1.527       .  S
C895       C1429   1.489       .  S
C896       C1205   1.528       .  S
C897       C1221   1.466       .  S
O898        C906   1.254   1_655  A
O898       Co918   1.983       .  S
O899       Co919   1.957       .  S
O900        C908   1.304   1_455  A
O900       Co920   2.148       .  S
O901        C909   1.275       .  A
O901       Co921   2.058       .  S
O902       C2444   1.239       .  A
O902       Co919   1.847       .  S
O903      Co2454   1.965       .  S
O904        C907   1.272       .  A
O904       Co921   2.032       .  S
O905        C906   1.275       .  A
O905       Co920   2.060       .  S
C906       C1285   1.538       .  S
C907       C1138   1.491   1_565  S
C908       C1157   1.488   1_655  S
C908       O2438   1.239       .  A
C909       C1346   1.531       .  S
O910       C2459   1.277       .  A
O911        C924   1.296       .  A
O911      Co2455   2.103   1_455  S
O912        C925   1.265       .  A
O912       Co920   1.987       .  S
O913        C926   1.252       .  A
O913       Co921   1.980       .  S
O914        C926   1.249       .  A
O915        C925   1.286       .  A
O915       Co918   2.063   1_455  S
O916        C923   1.247       .  A
O916       Co921   1.939       .  S
O917        C924   1.271       .  A
O917       Co920   1.917       .  S
Co918      O2439   1.967       .  S
Co918       O922   2.047       .  S
Co919      O2447   2.099       .  S
Co919      O2458   1.978       .  S
Co920       O922   2.099   1_455  S
Co921      O1690   2.094       .  S
O922      Co2455   1.980       .  S
O922      Co1689   2.110       .  S
C923       C1301   1.510       .  S
C923       O2446   1.278       .  A
C924       C1125   1.489       .  S
C925       C1362   1.533       .  S
C926       C1173   1.464       .  S
O927        C935   1.263       .  A
O927       Co947   2.004   1_455  S
O928        C936   1.262       .  A
O928       Co948   1.984   1_565  S
O929        C937   1.269       .  A
O929       Co949   1.924       .  S
O930        C938   1.260       .  A
O930       Co950   1.989       .  S
O931      Co2484   2.065       .  S
O932       C2474   1.275   1_455  A
O933        C936   1.261       .  A
O933       Co950   1.977       .  S
O934        C935   1.258       .  A
O934       Co949   2.033       .  S
C935       C1490   1.522       .  S
C936       C1074   1.457       .  S
C937       C1093   1.495       .  S
C938       C1029   1.514       .  S
C938       O2468   1.275       .  A
O939      Co2483   2.014       .  S
O940       C2489   1.248       .  A
O941        C954   1.281       .  A
O941       Co949   2.050       .  S
O942        C955   1.249       .  A
O942       Co950   2.002       .  S
O943        C955   1.248   1_545  A
O943       Co948   2.002       .  S
O944        C954   1.269   1_655  A
O944       Co947   1.995       .  S
O945        C952   1.262       .  A
O945       Co950   1.994       .  S
O946        C953   1.308       .  A
O946       Co949   2.141       .  S
Co947      O2475   2.008       .  S
Co948      O2467   2.068   1_545  S
Co948      O2487   2.005   1_545  S
Co950      O2487   2.126       .  S
O951      Co2484   2.009   1_665  S
O951      Co2486   2.126       .  S
C952       C1474   1.509       .  S
C953       C1061   1.490       .  S
C953       O2476   1.248       .  A
C954       C1045   1.534       .  S
C955       C1106   1.498   1_565  S
N956        C961   1.351       .  A
N956        C960   1.351       .  A
N956        H988   1.044       .  S
N957        C964   1.347       .  A
N957        C965   1.343       .  A
N958        C963   1.350       .  A
N958        C962   1.350       .  A
N958        H989   1.044       .  S
N959        C966   1.344       .  A
N959        C967   1.344       .  A
C960        C968   1.388       .  A
C960        C976   1.421       .  A
C961        C977   1.419       .  A
C961        C969   1.387       .  A
C962        C970   1.388       .  A
C962        C979   1.415       .  A
C963        C978   1.413       .  A
C963        C971   1.387       .  A
C964        C976   1.408       .  A
C964        C972   1.386       .  A
C965        C979   1.405       .  A
C965        C973   1.387       .  A
C966        C974   1.386       .  A
C966        C977   1.405       .  A
C967        C975   1.387       .  A
C967        C978   1.398       .  A
C968        C969   1.386       .  A
C968        H980   1.082       .  S
C969        H981   1.081       .  S
C970        C971   1.384       .  A
C970        H982   1.082       .  S
C971        H983   1.082       .  S
C972        C973   1.377       .  A
C972        H984   1.082       .  S
C973        H985   1.083       .  S
C974        C975   1.372       .  A
C974        H986   1.082       .  S
C975        H987   1.082       .  S
C976       C2690   1.497       .  S
C977       C2594   1.487       .  S
C978       C1077   1.478       .  S
C979       C1170   1.491       .  S
N990        C995   1.356       .  A
N990        C994   1.353       .  A
N990       H1022   1.049       .  S
N991        C998   1.352       .  A
N991        C999   1.353       .  A
N992        C997   1.352       .  A
N992        C996   1.352       .  A
N992       H1023   1.046       .  S
N993       C1000   1.350       .  A
N993       C1001   1.349       .  A
C994       C1002   1.388       .  A
C994       C1010   1.423       .  A
C995       C1011   1.422       .  A
C995       C1003   1.386       .  A
C996       C1004   1.387       .  A
C996       C1013   1.415       .  A
C997       C1012   1.415       .  A
C997       C1005   1.387       .  A
C998       C1010   1.416       .  A
C998       C1006   1.389       .  A
C999       C1013   1.413       .  A
C999       C1007   1.386       .  A
C1000      C1008   1.386       .  A
C1000      C1011   1.408       .  A
C1001      C1009   1.388       .  A
C1001      C1012   1.409       .  A
C1002      C1003   1.385       .  A
C1002      H1014   1.082       .  S
C1003      H1015   1.082       .  S
C1004      C1005   1.383       .  A
C1004      H1016   1.082       .  S
C1005      H1017   1.082       .  S
C1006      C1007   1.367       .  A
C1006      H1018   1.082       .  S
C1007      H1019   1.082       .  S
C1008      C1009   1.365       .  A
C1008      H1020   1.082       .  S
C1009      H1021   1.082       .  S
C1010      C1090   1.492       .  S
C1011      C1122   1.495       .  S
C1024      C1026   1.593       .  S
C1024      C2578   1.621       .  S
C1024      C2725   1.609       .  S
C1024      C1202   1.611       .  S
C1025      C1026   1.414       .  A
C1025      C1030   1.418       .  A
C1025      H1032   1.080       .  S
C1026      C2563   1.449       .  A
C1027      C1034   1.511       .  S
C1027      C2562   1.449       .  A
C1027      C1028   1.419       .  A
C1028      C2565   1.396       .  A
C1028      H1033   1.084       .  S
C1029      C2564   1.396       .  A
C1029      C1030   1.423       .  A
C1030      C1031   1.505       .  S
C1031      H1035   1.111       .  S
C1031      H1036   1.109       .  S
C1031      H1037   1.110       .  S
C1034      H1038   1.106       .  S
C1034      H1039   1.102   1_655  S
C1034      H1040   1.111       .  S
C1041      C2578   1.428       .  A
C1041      C1046   1.411       .  A
C1041      H1048   1.075       .  S
C1042      C2560   1.627       .  S
C1042      C2577   1.429       .  A
C1042      C1043   1.448   1_655  A
C1043      C1050   1.512       .  S
C1043      C1044   1.432       .  A
C1044      C1045   1.409       .  A
C1044      H1049   1.083       .  S
C1045      C2582   1.420   1_455  A
C1046      C1047   1.515       .  S
C1046      C2581   1.420       .  A
C1047      H1051   1.111       .  S
C1047      H1052   1.110       .  S
C1047      H1053   1.110       .  S
C1050      H1054   1.101       .  S
C1050      H1055   1.103       .  S
C1050      H1056   1.110       .  S
C1057      C1058   1.389       .  A
C1057      C1062   1.392       .  A
C1057      H1064   1.085       .  S
C1058      C2595   1.418   1_455  A
C1058      C2513   1.486       .  S
C1059      C1066   1.508       .  S
C1059      C2594   1.419       .  A
C1059      C1060   1.412       .  A
C1060      C2597   1.404       .  A
C1060      H1065   1.083       .  S
C1061      C2596   1.404   1_455  A
C1061      C1062   1.433       .  A
C1062      C1063   1.514       .  S
C1063      H1067   1.110       .  S
C1063      H1068   1.104       .  S
C1063      H1069   1.110       .  S
C1066      H1070   1.107       .  S
C1066      H1071   1.110       .  S
C1066      H1072   1.111       .  S
C1073      C1074   1.396       .  A
C1073      C1078   1.396       .  A
C1073      H1080   1.081       .  S
C1074      C2611   1.407       .  A
C1075      C1082   1.506       .  S
C1075      C2610   1.409       .  A
C1075      C1076   1.405       .  A
C1076      C2613   1.404       .  A
C1076      H1081   1.084       .  S
C1077      C2612   1.404       .  A
C1077      C1078   1.416       .  A
C1078      C1079   1.510       .  S
C1079      H1083   1.111       .  S
C1079      H1084   1.108       .  S
C1079      H1085   1.109       .  S
C1082      H1086   1.105       .  S
C1082      H1087   1.110       .  S
C1082      H1088   1.111       .  S
C1089      C1090   1.401       .  A
C1089      C1094   1.408       .  A
C1089      H1096   1.084       .  S
C1091      C1098   1.507   1_545  S
C1091      C1092   1.407       .  A
C1092      H1097   1.079   1_545  S
C1093      C1094   1.425       .  A
C1094      C1095   1.508       .  S
C1095      H1099   1.111       .  S
C1095      H1100   1.108       .  S
C1095      H1101   1.110       .  S
C1098      H1102   1.109       .  S
C1098      H1103   1.110       .  S
C1098      H1104   1.111       .  S
C1105      C1106   1.409       .  A
C1105      C1110   1.406       .  A
C1105      H1112   1.081       .  S
C1106      C1107   1.423   1_545  A
C1107      C1114   1.506       .  S
C1107      C1108   1.404       .  A
C1108      C1109   1.398   1_565  A
C1109      C1110   1.411       .  A
C1110      C1111   1.506       .  S
C1111      H1115   1.107       .  S
C1111      H1117   1.110       .  S
C1114      H1119   1.110       .  S
C1121      C1126   1.404       .  A
C1121      H1128   1.083   1_545  S
C1122      C1123   1.413       .  A
C1123      C1130   1.507       .  S
C1123      C1124   1.409       .  A
C1124      C1125   1.409       .  A
C1124      H1129   1.084       .  S
C1126      C1127   1.509   1_545  S
C1127      H1131   1.110       .  S
C1127      H1132   1.106       .  S
C1127      H1133   1.106       .  S
C1130      H1134   1.108       .  S
C1130      H1135   1.110       .  S
C1130      H1136   1.106       .  S
C1137      C1142   1.400       .  A
C1137      H1144   1.081       .  S
C1138      C1139   1.418   1_545  A
C1139      C1146   1.507       .  S
C1139      C1140   1.406       .  A
C1140      C1141   1.403   1_565  A
C1140      H1145   1.084       .  S
C1142      C1143   1.508       .  S
C1143      H1147   1.111       .  S
C1143      H1148   1.110       .  S
C1143      H1149   1.111       .  S
C1146      H1150   1.111       .  S
C1146      H1151   1.107       .  S
C1146      H1152   1.111       .  S
C1153      C1154   1.394       .  A
C1153      C1158   1.391       .  A
C1153      H1160   1.085       .  S
C1154      C2691   1.424   1_455  A
C1154      C2512   1.499       .  S
C1155      C1162   1.507       .  S
C1155      C2690   1.424       .  A
C1155      C1156   1.415       .  A
C1156      C2693   1.403       .  A
C1156      H1161   1.084       .  S
C1157      C2692   1.403   1_455  A
C1157      C1158   1.431       .  A
C1158      C1159   1.518       .  S
C1159      H1163   1.111       .  S
C1159      H1164   1.110   1_455  S
C1159      H1165   1.105       .  S
C1162      H1166   1.108       .  S
C1162      H1167   1.110       .  S
C1162      H1168   1.110       .  S
C1169      C1170   1.410       .  A
C1169      C1174   1.395       .  A
C1169      H1176   1.084       .  S
C1170      C2707   1.415       .  A
C1171      C1178   1.506       .  S
C1171      C2706   1.414       .  A
C1171      C1172   1.397       .  A
C1172      C2709   1.403       .  A
C1172      H1177   1.084       .  S
C1173      C2708   1.403       .  A
C1173      C1174   1.406       .  A
C1174      C1175   1.508       .  S
C1175      H1179   1.111       .  S
C1175      H1180   1.108       .  S
C1175      H1181   1.110       .  S
C1178      H1182   1.106       .  S
C1178      H1183   1.105       .  S
C1178      H1184   1.110       .  S
C1185      C1186   1.398       .  A
C1185      C1190   1.404       .  A
C1185      H1192   1.085       .  S
C1186      C1187   1.417       .  A
C1187      C1194   1.505       .  S
C1187      C1188   1.425       .  A
C1188      C1189   1.427       .  A
C1188      H1193   1.083       .  S
C1189      C2560   1.605   1_455  S
C1189      C1190   1.450       .  A
C1190      C1191   1.518       .  S
C1191      H1195   1.113       .  S
C1191      H1196   1.096       .  S
C1191      H1197   1.109       .  S
C1194      H1198   1.111       .  S
C1194      H1199   1.110       .  S
C1194      H1200   1.111       .  S
C1201      C1202   1.435       .  A
C1201      C1206   1.418       .  A
C1201      H1208   1.082       .  S
C1202      C1203   1.437       .  A
C1203      C1210   1.507       .  S
C1203      C1204   1.422       .  A
C1204      C1205   1.415       .  A
C1204      H1209   1.083       .  S
C1205      C1206   1.410       .  A
C1206      C1207   1.506       .  S
C1207      H1211   1.111       .  S
C1207      H1212   1.109       .  S
C1207      H1213   1.110       .  S
C1210      H1214   1.105       .  S
C1210      H1215   1.104       .  S
C1210      H1216   1.111       .  S
C1217      C1218   1.399       .  A
C1217      C1222   1.393       .  A
C1217      H1224   1.085       .  S
C1218      C1219   1.410       .  A
C1219      C1226   1.507       .  S
C1219      C1220   1.401       .  A
C1220      C1221   1.399       .  A
C1220      H1225   1.073       .  S
C1221      C1222   1.414       .  A
C1222      C1223   1.508       .  S
C1223      H1227   1.109       .  S
C1223      H1228   1.111       .  S
C1223      H1229   1.105       .  S
C1226      H1230   1.110       .  S
C1226      H1231   1.110       .  S
C1226      H1232   1.109       .  S
C1233      C1234   1.411       .  A
C1233      C1238   1.411       .  A
C1233      H1240   1.081       .  S
C1234      C1235   1.418       .  A
C1235      C1242   1.507       .  S
C1235      C1236   1.403       .  A
C1236      C1237   1.403       .  A
C1236      H1241   1.085       .  S
C1237      C1238   1.411       .  A
C1238      C1239   1.505       .  S
C1239      H1243   1.111       .  S
C1239      H1244   1.110       .  S
C1239      H1245   1.110       .  S
C1242      H1246   1.110       .  S
C1242      H1247   1.109       .  S
C1242      H1248   1.111       .  S
C1249      C1250   1.403       .  A
C1249      C1254   1.398       .  A
C1249      H1256   1.082       .  S
C1250      C1251   1.414       .  A
C1251      C1258   1.506       .  S
C1251      C1252   1.405       .  A
C1252      C1253   1.403       .  A
C1252      H1257   1.084       .  S
C1253      C1254   1.407       .  A
C1254      C1255   1.507       .  S
C1255      H1259   1.108       .  S
C1255      H1260   1.110       .  S
C1255      H1261   1.110       .  S
C1258      H1262   1.110       .  S
C1258      H1263   1.107       .  S
C1258      H1264   1.111       .  S
C1265      C1266   1.403       .  A
C1265      C1270   1.409       .  A
C1265      H1272   1.082       .  S
C1266      C1267   1.414       .  A
C1267      C1274   1.505       .  S
C1267      C1268   1.404       .  A
C1268      C1269   1.403       .  A
C1268      H1273   1.084       .  S
C1269      C1270   1.414       .  A
C1270      C1271   1.506       .  S
C1271      H1275   1.109       .  S
C1271      H1276   1.110       .  S
C1271      H1277   1.110       .  S
C1274      H1278   1.111       .  S
C1274      H1279   1.105       .  S
C1274      H1280   1.110       .  S
C1281      C2818   1.420       .  A
C1281      C1286   1.413       .  A
C1281      H1288   1.075       .  S
C1282      C2341   1.616       .  S
C1282      C2817   1.420       .  A
C1282      C1283   1.449   1_655  A
C1283      C1290   1.507       .  S
C1283      C1284   1.430       .  A
C1284      C1285   1.404       .  A
C1284      H1289   1.084       .  S
C1285      C2822   1.429   1_455  A
C1286      C1287   1.513       .  S
C1286      C2821   1.427       .  A
C1287      H1291   1.110       .  S
C1287      H1292   1.110       .  S
C1287      H1293   1.110       .  S
C1290      H1294   1.102       .  S
C1290      H1295   1.111       .  S
C1290      H1296   1.107       .  S
C1297      C1298   1.429       .  A
C1297      C1302   1.409       .  A
C1297      H1304   1.078       .  S
C1298      C1299   1.429       .  A
C1299      C1306   1.510       .  S
C1299      C1300   1.414       .  A
C1300      C1301   1.416       .  A
C1300      H1305   1.084       .  S
C1301      C1302   1.407       .  A
C1302      C1303   1.507       .  S
C1303      H1307   1.111       .  S
C1303      H1308   1.110       .  S
C1303      H2845   1.111       .  S
C1306      H1310   1.098       .  S
C1306      H2847   1.110       .  S
C1306      H1312   1.111       .  S
H1309      C2839   1.111   1_455  S
H1311      C2842   1.110       .  S
C1313      C1314   1.422       .  A
C1313      C1318   1.397       .  A
C1313      H1320   1.078       .  S
C1314      C2341   1.586   1_455  S
C1314      C1315   1.439       .  A
C1315      C1322   1.506       .  S
C1315      C1316   1.420       .  A
C1316      C1317   1.404       .  A
C1316      H1321   1.085       .  S
C1317      C1318   1.406       .  A
C1318      C1319   1.506       .  S
C1319      H1323   1.107       .  S
C1319      H1324   1.110       .  S
C1319      H1325   1.100       .  S
C1322      H1326   1.097   1_455  S
C1322      H1327   1.110       .  S
C1322      H1328   1.110       .  S
C1329      C1330   1.427       .  A
C1329      C1334   1.415       .  A
C1329      H1336   1.080       .  S
C1330      C1331   1.442       .  A
C1331      C1338   1.512       .  S
C1331      C1332   1.420       .  A
C1332      C1333   1.409       .  A
C1332      H1337   1.085       .  S
C1333      C1334   1.414       .  A
C1334      C1335   1.508       .  S
C1335      H1339   1.111       .  S
C1335      H1340   1.111       .  S
C1335      H1341   1.109       .  S
C1338      H1342   1.109       .  S
C1338      H1343   1.112       .  S
C1338      H1344   1.096       .  S
C1345      C1350   1.404       .  A
C1345      H1352   1.082       .  S
C1346      C1347   1.420       .  A
C1347      C1354   1.503       .  S
C1347      C1348   1.436       .  A
C1348      H1353   1.083       .  S
C1349      C1350   1.462       .  A
C1350      C1351   1.522       .  S
C1351      H1355   1.111       .  S
C1351      H1356   1.098       .  S
C1351      H1357   1.104       .  S
C1354      H1358   1.111       .  S
C1354      H1359   1.110       .  S
C1354      H1360   1.111       .  S
C1361      C1362   1.402       .  A
C1362      C1363   1.431       .  A
C1363      C1370   1.505       .  S
C1363      C1364   1.424       .  A
C1364      C1365   1.415       .  A
C1364      H1369   1.078       .  S
C1366      C1367   1.519       .  S
C1367      H1371   1.111       .  S
C1367      H1373   1.111       .  S
C1370      H1374   1.110       .  S
C1370      H1375   1.109       .  S
C1370      H1376   1.111       .  S
C1377      C1378   1.423       .  A
C1377      C1382   1.430       .  A
C1377      H1384   1.078       .  S
C1378      C1379   1.449       .  A
C1379      C1386   1.516       .  S
C1379      C1380   1.409       .  A
C1380      C1381   1.395       .  A
C1380      H1385   1.085       .  S
C1381      C1382   1.419       .  A
C1382      C1383   1.502       .  S
C1383      H1387   1.111       .  S
C1383      H1388   1.108       .  S
C1383      H1389   1.110       .  S
C1386      H1390   1.107       .  S
C1386      H1391   1.107       .  S
C1386      H1392   1.111       .  S
C1393      C1394   1.423       .  A
C1393      C1398   1.409       .  A
C1393      H1400   1.063       .  S
C1394      C1395   1.446       .  A
C1395      C1402   1.505       .  S
C1395      C1396   1.433       .  A
C1396      C1397   1.409       .  A
C1396      H1401   1.084       .  S
C1397      C1398   1.414       .  A
C1398      C1399   1.509       .  S
C1399      H1403   1.107       .  S
C1399      H1404   1.110       .  S
C1399      H1405   1.100       .  S
C1402      H1406   1.101       .  S
C1402      H1407   1.110       .  S
C1402      H1408   1.111       .  S
C1409      C1410   1.396       .  A
C1409      C1414   1.398       .  A
C1409      H1416   1.085       .  S
C1410      C1411   1.423       .  A
C1411      C1418   1.506       .  S
C1411      C1412   1.413       .  A
C1412      C1413   1.402       .  A
C1412      H1417   1.084       .  S
C1413      C1414   1.427       .  A
C1414      C1415   1.514       .  S
C1415      H1419   1.111       .  S
C1415      H1420   1.108       .  S
C1415      H1421   1.108       .  S
C1418      H1422   1.110       .  S
C1418      H1423   1.109       .  S
C1418      H1424   1.111       .  S
C1425      C1426   1.403       .  A
C1425      C1430   1.399       .  A
C1425      H1432   1.085       .  S
C1426      C1427   1.414       .  A
C1427      C1434   1.506       .  S
C1427      C1428   1.411       .  A
C1428      C1429   1.409       .  A
C1428      H1433   1.084       .  S
C1429      C1430   1.420       .  A
C1430      C1431   1.512       .  S
C1431      H1435   1.111       .  S
C1431      H1436   1.108       .  S
C1431      H1437   1.110       .  S
C1434      H1438   1.108       .  S
C1434      H1439   1.110       .  S
C1434      H1440   1.110       .  S
C1441      C1442   1.395       .  A
C1441      C1446   1.395       .  A
C1441      H1448   1.084       .  S
C1442      C1443   1.428       .  A
C1443      C1450   1.507       .  S
C1443      C1444   1.410       .  A
C1444      C1445   1.400       .  A
C1444      H1449   1.084       .  S
C1445      C1446   1.421       .  A
C1446      C1447   1.494       .  S
C1447      H1451   1.111       .  S
C1447      H1452   1.108       .  S
C1447      H1453   1.096       .  S
C1450      H1454   1.110       .  S
C1450      H1455   1.107       .  S
C1450      H1456   1.110       .  S
C1457      C1458   1.398       .  A
C1457      C1462   1.400       .  A
C1457      H1464   1.084       .  S
C1458      C1459   1.417       .  A
C1459      C1466   1.508       .  S
C1459      C1460   1.403       .  A
C1460      C1461   1.399       .  A
C1460      H1465   1.083       .  S
C1461      C1462   1.418       .  A
C1462      C1463   1.508       .  S
C1463      H1467   1.110       .  S
C1463      H1468   1.110       .  S
C1463      H1469   1.109       .  S
C1466      H1470   1.109       .  S
C1466      H1471   1.107       .  S
C1466      H1472   1.110       .  S
C1473      C1474   1.395       .  A
C1473      C1478   1.398   1_565  A
C1473      H1480   1.083       .  S
C1474      C1475   1.421   1_565  A
C1475      C1482   1.505       .  S
C1475      C1476   1.426       .  A
C1476      C1477   1.421       .  A
C1476      H1481   1.079       .  S
C1477      C1478   1.444       .  A
C1479      H1483   1.111       .  S
C1479      H1484   1.103       .  S
C1482      H1487   1.109   1_545  S
C1482      H1488   1.111       .  S
C1489      C1490   1.391       .  A
C1489      C1494   1.409       .  A
C1489      H1496   1.084       .  S
C1491      C1498   1.505       .  S
C1491      C1492   1.430       .  A
C1492      H1497   1.076       .  S
C1493      C1494   1.462       .  A
C1494      C1495   1.519       .  S
C1495      H1499   1.111       .  S
C1495      H1500   1.095       .  S
C1495      H1501   1.103       .  S
C1498      H1502   1.111       .  S
C1498      H1503   1.110       .  S
C1498      H1504   1.111       .  S
C1505      C1506   1.431       .  A
C1505      C1510   1.414       .  A
C1505      H1512   1.083       .  S
C1506      C1507   1.441       .  A
C1507      C1514   1.512       .  S
C1507      C1508   1.426       .  A
C1508      C1509   1.418       .  A
C1508      H1513   1.083       .  S
C1509      C1510   1.411       .  A
C1510      C1511   1.506       .  S
C1511      H1515   1.111       .  S
C1511      H1516   1.110       .  S
C1511      H1517   1.109       .  S
C1514      H1518   1.105       .  S
C1514      H1519   1.098       .  S
C1514      H1520   1.111       .  S
C1521      C1522   1.414       .  A
C1521      C1526   1.425       .  A
C1521      H1528   1.073       .  S
C1522      C1523   1.456       .  A
C1523      C1530   1.513       .  S
C1523      C1524   1.413       .  A
C1524      C1525   1.391       .  A
C1524      H1529   1.086       .  S
C1525      C1526   1.428       .  A
C1526      C1527   1.505       .  S
C1527      H1531   1.111       .  S
C1527      H1532   1.109       .  S
C1527      H1533   1.103       .  S
C1530      H1534   1.094       .  S
C1530      H1535   1.108       .  S
C1530      H1536   1.112       .  S
C1537      C3013   1.595       .  S
C1537      C2261   1.616       .  S
C1537      C2274   1.602   1_565  S
C1537      C3058   1.614       .  S
N1538      C1543   1.360       .  A
N1538      C1542   1.363   1_554  A
N1538      H1570   1.036       .  S
N1539      C1547   1.345       .  A
N1540      C1545   1.353   1_556  A
N1540      C1544   1.349       .  A
N1540      H1571   1.024       .  S
N1541      C1549   1.355       .  A
C1542      C1550   1.388       .  A
C1542      C1558   1.436       .  A
C1543      C1559   1.432       .  A
C1543      C1551   1.386       .  A
C1544      C1552   1.387       .  A
C1544      C1561   1.411       .  A
C1545      C1560   1.415       .  A
C1545      C1553   1.386       .  A
C1546      C1558   1.416       .  A
C1546      C1554   1.390       .  A
C1547      C1561   1.411       .  A
C1547      C1555   1.392       .  A
C1548      C1556   1.387       .  A
C1548      C1559   1.417       .  A
C1549      C1557   1.387       .  A
C1549      C1560   1.417       .  A
C1550      C1551   1.390   1_556  A
C1550      H1562   1.082       .  S
C1551      H1563   1.082       .  S
C1552      C1553   1.383   1_556  A
C1552      H1564   1.083       .  S
C1553      H1565   1.082       .  S
C1554      H1566   1.082       .  S
C1555      H1567   1.080       .  S
C1556      H1568   1.081       .  S
C1557      H1569   1.081       .  S
C1558      C2210   1.508       .  S
C1559      C2178   1.509       .  S
C1560      C2194   1.496       .  S
C1561      C2226   1.468       .  S
C1572      C2117   1.629       .  S
C1572      C2133   1.609   1_565  S
C1572      C2146   1.569   1_565  S
C1572      C2930   1.624       .  S
C1573      C2066   1.596       .  S
C1573      C2098   1.607       .  S
N1574      C1579   1.352       .  A
N1574      C1578   1.349   1_556  A
N1574      H1606   1.050       .  S
N1575      C1582   1.347       .  A
N1575      C2351   1.353   1_545  A
N1576      C1581   1.349   1_554  A
N1576      C1580   1.349       .  A
N1576      H1607   1.044       .  S
N1577      C1584   1.356   1_565  A
N1577      C2353   1.349       .  A
C1578      C1586   1.389       .  A
C1578      C1594   1.414       .  A
C1579      C1595   1.411       .  A
C1579      C1587   1.386       .  A
C1580      C1588   1.388       .  A
C1580      C1597   1.412       .  A
C1581      C1596   1.412       .  A
C1581      C1589   1.387       .  A
C1582      C1594   1.415       .  A
C1582      C1590   1.389       .  A
C1583      N2343   1.348       .  A
C1583      C1597   1.405       .  A
C1583      C1591   1.384       .  A
C1584      C1592   1.380   1_545  A
C1584      C1595   1.407       .  A
C1585      N2345   1.346       .  A
C1585      C1593   1.388       .  A
C1585      C1596   1.408       .  A
C1586      C1587   1.379   1_554  A
C1586      H1598   1.081       .  S
C1587      H1599   1.082       .  S
C1588      C1589   1.383   1_554  A
C1588      H1600   1.082       .  S
C1589      H1601   1.082       .  S
C1590      C2359   1.374   1_545  A
C1590      H1602   1.083       .  S
C1591      C2358   1.375       .  A
C1591      H1603   1.082       .  S
C1592      C2361   1.363       .  A
C1592      H1604   1.082       .  S
C1593      C2360   1.371       .  A
C1593      H1605   1.083       .  S
C1594      C1986   1.486       .  S
C1595      C2021   1.491       .  S
C1596      C2037   1.487       .  S
C1597      C2005   1.481       .  S
O1608      C1616   1.265       .  A
O1608     Co1628   2.022       .  S
O1609      C1617   1.283       .  A
O1609     Co1629   2.086       .  S
O1610      C1618   1.264       .  A
O1610     Co1630   1.980       .  S
O1611      C1619   1.260       .  A
O1611     Co1631   1.975       .  S
O1612      C1618   1.283       .  A
O1612     Co1629   2.057       .  S
O1613      C1619   1.255       .  A
O1613     Co1628   1.980       .  S
O1614      C1617   1.250       .  A
O1614     Co1631   1.966       .  S
O1615      C1616   1.230       .  A
O1615     Co1630   1.933       .  S
C1616      C2229   1.463       .  S
C1617      C2165   1.520       .  S
C1618      C2101   1.507       .  S
C1619      C2034   1.465       .  S
O1620      C1633   1.269       .  A
O1620     Co1628   1.977       .  S
O1621      C1634   1.264       .  A
O1621     Co1629   2.025       .  S
O1622      C1635   1.299       .  A
O1622     Co1630   2.112       .  S
O1623      C1636   1.281       .  A
O1623     Co1631   2.067       .  S
O1624      C1636   1.252       .  A
O1624     Co1629   1.956       .  S
O1625      C1635   1.259       .  A
O1625     Co1628   1.875       .  S
O1626      C1633   1.270       .  A
O1626     Co1631   2.021       .  S
O1627      C1634   1.237       .  A
O1627     Co1630   1.923       .  S
Co1628     O1632   2.003       .  S
Co1629     O1632   2.101       .  S
Co1630     O1632   2.080       .  S
Co1631     O1632   2.069       .  S
C1633      C2213   1.510       .  S
C1634      C2149   1.473       .  S
C1635      C2018   1.470       .  S
C1636      C2085   1.504       .  S
O1637      C1645   1.254       .  A
O1637     Co1657   1.979       .  S
O1638      C1646   1.270       .  A
O1638     Co1658   1.964       .  S
O1639      C1647   1.311       .  A
O1639     Co1659   2.145       .  S
O1640      C1648   1.263       .  A
O1640     Co1660   2.046       .  S
O1641      C1647   1.276       .  A
O1641     Co1658   1.867       .  S
O1642      C1648   1.252       .  A
O1642     Co1657   1.966       .  S
O1643      C1646   1.281       .  A
O1643     Co1660   2.040       .  S
O1644      C1645   1.280       .  A
O1644     Co1659   2.074       .  S
C1645      C2293   1.519       .  S
C1646      C2181   1.517       .  S
C1647      C2002   1.481       .  S
C1648      C1954   1.519       .  S
O1649      C1662   1.291       .  A
O1649     Co1657   2.085       .  S
O1650      C1663   1.248       .  A
O1650     Co1658   2.044       .  S
O1651      C1664   1.243       .  A
O1651     Co1659   1.948       .  S
O1652      C1665   1.265       .  A
O1652     Co1660   1.957       .  S
O1653      C1665   1.274       .  A
O1653     Co1658   2.038       .  S
O1654      C1664   1.275       .  A
O1654     Co1657   2.086       .  S
O1655      C1662   1.264       .  A
O1655     Co1660   1.962       .  S
O1656      C1663   1.238       .  A
O1656     Co1659   1.977       .  S
Co1657     O1661   2.087       .  S
Co1658     O1661   1.997       .  S
Co1659     O1661   2.125       .  S
Co1660     O1661   2.102       .  S
C1662      C2277   1.528       .  S
C1663      C2197   1.489       .  S
C1664      C1973   1.527       .  S
C1665      C1989   1.483       .  S
O1666      C1674   1.256       .  A
O1666     Co1686   1.987       .  S
O1667      C2443   1.259       .  A
O1667     Co1687   1.949       .  S
O1668      C1676   1.305       .  A
O1668     Co1688   2.148       .  S
O1669      C1677   1.273       .  A
O1669     Co1689   2.050       .  S
O1670     Co1687   1.864       .  S
O1671      C2445   1.267   1_545  A
O1672      C1675   1.271       .  A
O1672     Co1689   2.031       .  S
O1673      C1674   1.274       .  A
O1673     Co1688   2.061       .  S
C1674      C2053   1.538       .  S
C1675      C1906   1.492       .  S
C1675      O2435   1.257       .  A
C1676      C1925   1.487       .  S
C1677      C2114   1.525       .  S
C1677      O2439   1.265       .  A
O1678     Co2454   2.067       .  S
O1679      C1692   1.292       .  A
O1680      C1693   1.263       .  A
O1680     Co1688   1.980       .  S
O1681      C1694   1.255   1_455  A
O1681     Co1689   1.984   1_455  S
O1682      C1694   1.249       .  A
O1682     Co2455   1.981       .  S
O1683      C1693   1.289       .  A
O1683     Co1686   2.066       .  S
O1684      C1691   1.252       .  A
O1684     Co1689   1.949       .  S
O1685      C1692   1.272       .  A
O1685     Co1688   1.918       .  S
Co1686     O2446   2.063   1_545  S
Co1686     O1690   2.041   1_545  S
Co1687     O2450   1.903   1_545  S
Co1688     O1690   2.097   1_545  S
C1691      C2069   1.493       .  S
C1692      C1893   1.482       .  S
C1693      C2130   1.526       .  S
C1694      C1941   1.463   1_655  S
O1695      C1703   1.263   1_545  A
O1695     Co1715   2.006   1_545  S
O1696      C1704   1.263       .  A
O1696     Co1716   1.987       .  S
O1697      C1705   1.268       .  A
O1697     Co1717   1.918       .  S
O1698      C1706   1.257       .  A
O1698     Co1718   1.983       .  S
O1699      C2473   1.295       .  A
O1700     Co2483   2.038       .  S
O1701      C1704   1.260   1_655  A
O1701     Co1718   1.974       .  S
O1702      C1703   1.258       .  A
O1702     Co1717   2.028   1_565  S
C1703      C2258   1.516       .  S
C1704      C1842   1.459       .  S
C1705      C1861   1.490       .  S
C1705      O2467   1.292   1_545  A
C1706      C1797   1.511       .  S
O1707      C2488   1.272       .  A
O1708     Co2484   1.855       .  S
O1709      C1722   1.278       .  A
O1709     Co1717   2.048       .  S
O1710      C1723   1.247       .  A
O1710     Co1718   1.994       .  S
O1711      C1723   1.248       .  A
O1711     Co1716   1.997   1_655  S
O1712      C1722   1.267       .  A
O1712     Co1715   1.991   1_545  S
O1713      C1720   1.266       .  A
O1713     Co1718   2.002       .  S
O1714      C1721   1.308       .  A
O1714     Co1717   2.141       .  S
Co1715     O2468   2.034       .  S
Co1715     O2487   2.075       .  S
Co1716     O2476   1.859       .  S
Co1717     O2487   2.092   1_545  S
O1719     Co2483   2.076       .  S
O1719     Co2485   2.102       .  S
C1720      C2242   1.517       .  S
C1720      O2475   1.273       .  A
C1721      C1829   1.486       .  S
C1722      C1813   1.530       .  S
C1723      C1874   1.494       .  S
N1724      C1729   1.352       .  A
N1724      C1728   1.351       .  A
N1724      H1756   1.045       .  S
N1725      C1732   1.347       .  A
N1725      C1733   1.343       .  A
N1726      C1731   1.350       .  A
N1726      C1730   1.351       .  A
N1726      H1757   1.046       .  S
N1727      C1734   1.344       .  A
N1727      C1735   1.344       .  A
C1728      C1736   1.388   1_455  A
C1728      C1744   1.421       .  A
C1729      C1745   1.420       .  A
C1729      C1737   1.388   1_455  A
C1730      C1738   1.388       .  A
C1730      C1747   1.413       .  A
C1731      C1746   1.412       .  A
C1731      C1739   1.386       .  A
C1732      C1744   1.409       .  A
C1732      C1740   1.386       .  A
C1733      C1747   1.404       .  A
C1733      C1741   1.388       .  A
C1734      C1742   1.387       .  A
C1734      C1745   1.406       .  A
C1735      C1743   1.385       .  A
C1735      C1746   1.397       .  A
C1736      C1737   1.384       .  A
C1736      H1748   1.082       .  S
C1737      H1749   1.082       .  S
C1738      C1739   1.382       .  A
C1738      H1750   1.082       .  S
C1739      H1751   1.082       .  S
C1740      C1741   1.376       .  A
C1740      H1752   1.082       .  S
C1741      H1753   1.083       .  S
C1742      C1743   1.371       .  A
C1742      H1754   1.082       .  S
C1743      H1755   1.082       .  S
C1746      C1845   1.477       .  S
C1747      C1938   1.484       .  S
N1758      C1763   1.355       .  A
N1758      C1762   1.353       .  A
N1758      H1790   1.047       .  S
N1759      C1766   1.351       .  A
N1759      C1767   1.353       .  A
N1760      C1765   1.352       .  A
N1760      C1764   1.353       .  A
N1760      H1791   1.048       .  S
N1761      C1768   1.350       .  A
N1761      C1769   1.349       .  A
C1762      C1770   1.388       .  A
C1762      C1778   1.422       .  A
C1763      C1779   1.421       .  A
C1763      C1771   1.386       .  A
C1764      C1772   1.387       .  A
C1764      C1781   1.416       .  A
C1765      C1780   1.415       .  A
C1765      C1773   1.387       .  A
C1766      C1778   1.416       .  A
C1766      C1774   1.389       .  A
C1767      C1781   1.411       .  A
C1767      C1775   1.385       .  A
C1768      C1776   1.388       .  A
C1768      C1779   1.411       .  A
C1769      C1777   1.386       .  A
C1769      C1780   1.408       .  A
C1770      C1771   1.386       .  A
C1770      H1782   1.082       .  S
C1771      H1783   1.082       .  S
C1772      C1773   1.382       .  A
C1772      H1784   1.082   1_545  S
C1773      H1785   1.082   1_545  S
C1774      C1775   1.366       .  A
C1774      H1786   1.081       .  S
C1775      H1787   1.082       .  S
C1776      C1777   1.365       .  A
C1776      H1788   1.082       .  S
C1777      H1789   1.083       .  S
C1778      C1858   1.490       .  S
C1779      C1890   1.493       .  S
C1780      C2677   1.485       .  S
C1781      C2645   1.490       .  S
C1792      C1794   1.593       .  S
C1792      C1970   1.610       .  S
C1793      C1794   1.413       .  A
C1793      C1798   1.419       .  A
C1793      H1800   1.080       .  S
C1795      C1802   1.514       .  S
C1795      C1796   1.418       .  A
C1796      H1801   1.084       .  S
C1797      C1798   1.423       .  A
C1798      C1799   1.504       .  S
C1799      H1803   1.111       .  S
C1799      H1804   1.109       .  S
C1799      H1805   1.110   1_655  S
C1802      H1806   1.106       .  S
C1802      H1807   1.104       .  S
C1802      H1808   1.111       .  S
C1809      C1814   1.411       .  A
C1809      H1816   1.075       .  S
C1810      C1811   1.444       .  A
C1811      C1818   1.502       .  S
C1811      C1812   1.429       .  A
C1812      C1813   1.409       .  A
C1812      H1817   1.084       .  S
C1814      C1815   1.516       .  S
C1815      H1819   1.111       .  S
C1815      H1820   1.110       .  S
C1815      H1821   1.110       .  S
C1818      H1822   1.091       .  S
C1818      H1823   1.111       .  S
C1818      H1824   1.111       .  S
C1825      C1826   1.389       .  A
C1825      C1830   1.391       .  A
C1825      H1832   1.085       .  S
C1827      C1834   1.506       .  S
C1827      C1828   1.409       .  A
C1828      H1833   1.084       .  S
C1829      C1830   1.433       .  A
C1830      C1831   1.514       .  S
C1831      H1835   1.111       .  S
C1831      H1836   1.103       .  S
C1831      H1837   1.110       .  S
C1834      H1838   1.110       .  S
C1834      H1839   1.108       .  S
C1834      H1840   1.110       .  S
C1841      C1842   1.397   1_655  A
C1841      C1846   1.397   1_655  A
C1841      H1848   1.084       .  S
C1843      C1850   1.503       .  S
C1843      C1844   1.399       .  A
C1844      H1849   1.084       .  S
C1845      C1846   1.415       .  A
C1846      C1847   1.509   1_455  S
C1847      H1851   1.111       .  S
C1847      H1852   1.108       .  S
C1847      H1853   1.109       .  S
C1850      H1854   1.105       .  S
C1850      H1855   1.110       .  S
C1850      H1856   1.111       .  S
C1857      C1858   1.400       .  A
C1857      C1862   1.405       .  A
C1857      H1864   1.084       .  S
C1858      C2627   1.411   1_545  A
C1859      C1866   1.506       .  S
C1859      C2626   1.413       .  A
C1859      C1860   1.406       .  A
C1860      C2629   1.404       .  A
C1860      H1865   1.078       .  S
C1861      C2628   1.406   1_545  A
C1861      C1862   1.424       .  A
C1862      C1863   1.509       .  S
C1863      H1867   1.111       .  S
C1863      H1868   1.108       .  S
C1863      H1869   1.110       .  S
C1866      H1870   1.110       .  S
C1866      H1871   1.110       .  S
C1866      H1872   1.111       .  S
C1873      C1874   1.409       .  A
C1873      C1878   1.404       .  A
C1873      H1880   1.081       .  S
C1874      C1875   1.422       .  A
C1875      C1882   1.508       .  S
C1875      C1876   1.404       .  A
C1876      C1877   1.400       .  A
C1876      H2649   1.085       .  S
C1877      C1878   1.411       .  A
C1877      C2549   1.487       .  S
C1878      C1879   1.507       .  S
C1879      H1883   1.110       .  S
C1879      H2652   1.109       .  S
C1879      H1885   1.110       .  S
H1881      C2644   1.085       .  S
C1882      H2654   1.108       .  S
C1882      H1887   1.111       .  S
C1882      H2656   1.111       .  S
H1884      C2647   1.109       .  S
H1886      C2650   1.108       .  S
H1888      C2650   1.111       .  S
C1889      C2658   1.406       .  A
C1889      C1894   1.407       .  A
C1889      H1896   1.085       .  S
C1890      C2657   1.405       .  A
C1890      C1891   1.411       .  A
C1891      C1898   1.505       .  S
C1891      C1892   1.407       .  A
C1892      C1893   1.407       .  A
C1892      H1897   1.084       .  S
C1893      C2662   1.416       .  A
C1894      C1895   1.508       .  S
C1894      C2661   1.416       .  A
C1895      H1899   1.107       .  S
C1895      H1900   1.107       .  S
C1895      H1901   1.110       .  S
C1898      H1902   1.110       .  S
C1898      H1903   1.110       .  S
C1898      H1904   1.111       .  S
C1905      C2674   1.411       .  A
C1905      C1910   1.399       .  A
C1905      H1912   1.081       .  S
C1906      C2673   1.411       .  A
C1906      C1907   1.418       .  A
C1907      C1914   1.508       .  S
C1907      C1908   1.407       .  A
C1908      C1909   1.404       .  A
C1908      H1913   1.084       .  S
C1909      C2678   1.406       .  A
C1909      C2548   1.487       .  S
C1910      C1911   1.507       .  S
C1910      C2677   1.406       .  A
C1911      H1915   1.111       .  S
C1911      H1916   1.110       .  S
C1911      H1917   1.110       .  S
C1914      H1918   1.111       .  S
C1914      H1919   1.107       .  S
C1914      H1920   1.111       .  S
C1921      C1922   1.391       .  A
C1921      C1926   1.390       .  A
C1921      H1928   1.085       .  S
C1923      C1930   1.505   1_455  S
C1923      C1924   1.410       .  A
C1924      H1929   1.084   1_455  S
C1925      C1926   1.433       .  A
C1926      C1927   1.518       .  S
C1927      H1931   1.111       .  S
C1927      H1932   1.110       .  S
C1927      H1933   1.104       .  S
C1930      H1934   1.107       .  S
C1930      H1935   1.110       .  S
C1930      H1936   1.111       .  S
C1937      C1938   1.407       .  A
C1937      C1942   1.395   1_455  A
C1937      H1944   1.085   1_455  S
C1939      C1946   1.509       .  S
C1939      C1940   1.403       .  A
C1940      H1945   1.084       .  S
C1941      C1942   1.406   1_455  A
C1942      C1943   1.507       .  S
C1943      H1947   1.111       .  S
C1943      H1948   1.109       .  S
C1943      H1949   1.110       .  S
C1946      H1950   1.104       .  S
C1946      H1951   1.110       .  S
C1946      H1952   1.109       .  S
C1953      C1954   1.396       .  A
C1953      C1958   1.405       .  A
C1953      H1960   1.084       .  S
C1954      C1955   1.413       .  A
C1955      C1962   1.504       .  S
C1955      C1956   1.426       .  A
C1956      C1957   1.431       .  A
C1956      H1961   1.082       .  S
C1957      C1958   1.459       .  A
C1958      C1959   1.524       .  S
C1959      H1963   1.112       .  S
C1959      H1964   1.099       .  S
C1959      H1965   1.107       .  S
C1962      H1966   1.110       .  S
C1962      H1967   1.110       .  S
C1962      H1968   1.111       .  S
C1969      C1970   1.435       .  A
C1969      C1974   1.418       .  A
C1969      H1976   1.083       .  S
C1970      C1971   1.436       .  A
C1971      C1978   1.507       .  S
C1971      C1972   1.422       .  A
C1972      C1973   1.416       .  A
C1972      H1977   1.083       .  S
C1973      C1974   1.409       .  A
C1974      C1975   1.505       .  S
C1975      H1979   1.111       .  S
C1975      H1980   1.108       .  S
C1975      H1981   1.110       .  S
C1978      H1982   1.105       .  S
C1978      H1983   1.104   1_655  S
C1978      H1984   1.111       .  S
C1985      C1986   1.404       .  A
C1985      C1990   1.405       .  A
C1985      H1992   1.084       .  S
C1986      C1987   1.413       .  A
C1987      C1994   1.509       .  S
C1987      C1988   1.390       .  A
C1988      C1989   1.404       .  A
C1988      H1993   1.082       .  S
C1989      C1990   1.418       .  A
C1990      C1991   1.504       .  S
C1991      H1995   1.100       .  S
C1991      H1996   1.110       .  S
C1991      H1997   1.110       .  S
C1994      H1998   1.108       .  S
C1994      H1999   1.111       .  S
C1994      H2000   1.111       .  S
C2001      C2002   1.404       .  A
C2001      C2006   1.401       .  A
C2001      H2008   1.085       .  S
C2002      C2003   1.419       .  A
C2003      C2010   1.507       .  S
C2003      C2004   1.404       .  A
C2004      C2005   1.399       .  A
C2004      H2009   1.084       .  S
C2005      C2006   1.413       .  A
C2006      C2007   1.508       .  S
C2007      H2011   1.111       .  S
C2007      H2012   1.110       .  S
C2007      H2013   1.108       .  S
C2010      H2014   1.106       .  S
C2010      H2015   1.110       .  S
C2010      H2016   1.111       .  S
C2017      C2018   1.397       .  A
C2017      C2022   1.402       .  A
C2017      H2024   1.080       .  S
C2018      C2019   1.414       .  A
C2019      C2026   1.506       .  S
C2019      C2020   1.406       .  A
C2020      C2021   1.404       .  A
C2020      H2025   1.084       .  S
C2021      C2022   1.411       .  A
C2022      C2023   1.503       .  S
C2023      H2027   1.107       .  S
C2023      H2028   1.109       .  S
C2023      H2029   1.110       .  S
C2026      H2030   1.108       .  S
C2026      H2031   1.110       .  S
C2026      H2032   1.109       .  S
C2033      C2034   1.404       .  A
C2033      C2038   1.400       .  A
C2033      H2040   1.084       .  S
C2034      C2035   1.408       .  A
C2035      C2042   1.510       .  S
C2035      C2036   1.395       .  A
C2036      C2037   1.408       .  A
C2036      H2041   1.084       .  S
C2037      C2038   1.414       .  A
C2038      C2039   1.508       .  S
C2039      H2043   1.108       .  S
C2039      H2044   1.110       .  S
C2039      H2045   1.105       .  S
C2042      H2046   1.110       .  S
C2042      H2047   1.110       .  S
C2042      H2048   1.110       .  S
C2049      C2054   1.408       .  A
C2049      H2056   1.081       .  S
C2050      C2051   1.447       .  A
C2051      C2058   1.507       .  S
C2051      C2052   1.433       .  A
C2052      C2053   1.407       .  A
C2052      H2057   1.083       .  S
C2054      C2055   1.510       .  S
C2055      H2059   1.110       .  S
C2055      H2060   1.110   1_655  S
C2055      H2061   1.110       .  S
C2058      H2062   1.103       .  S
C2058      H2063   1.111       .  S
C2058      H2064   1.106       .  S
C2065      C2066   1.436   1_455  A
C2065      C2070   1.413       .  A
C2065      H2072   1.075       .  S
C2066      C2067   1.437       .  A
C2067      C2074   1.510       .  S
C2067      C2068   1.413       .  A
C2068      C2069   1.402       .  A
C2068      H2073   1.085       .  S
C2069      C2070   1.401   1_655  A
C2070      C2071   1.508       .  S
C2071      H2075   1.111       .  S
C2071      H2076   1.110       .  S
C2074      H2078   1.104       .  S
C2074      H2080   1.109       .  S
C2081      C2082   1.428       .  A
C2081      C2086   1.403       .  A
C2081      H2088   1.078       .  S
C2082      C2083   1.437       .  A
C2083      C2090   1.506       .  S
C2083      C2084   1.422       .  A
C2084      C2085   1.409       .  A
C2084      H2089   1.085       .  S
C2085      C2086   1.408       .  A
C2086      C2087   1.507       .  S
C2087      H2091   1.110       .  S
C2087      H2092   1.111       .  S
C2087      H2093   1.104       .  S
C2090      H2094   1.097       .  S
C2090      H2095   1.110       .  S
C2090      H2096   1.110       .  S
C2097      C2098   1.427       .  A
C2097      C2102   1.410       .  A
C2097      H2104   1.075       .  S
C2098      C2099   1.443       .  A
C2099      C2106   1.510       .  S
C2099      C2100   1.425       .  A
C2100      C2101   1.404       .  A
C2100      H2105   1.084       .  S
C2101      C2102   1.410       .  A
C2102      C2103   1.510       .  S
C2103      H2107   1.110       .  S
C2103      H2108   1.109       .  S
C2103      H2109   1.107       .  S
C2106      H2110   1.111       .  S
C2106      H2111   1.107       .  S
C2106      H2112   1.103       .  S
C2113      C2882   1.392   1_545  A
C2113      C2118   1.405       .  A
C2113      H2120   1.083       .  S
C2114      C2881   1.392       .  A
C2114      C2115   1.415       .  A
C2115      C2122   1.503       .  S
C2115      C2116   1.431       .  A
C2116      C2885   1.434       .  A
C2116      H2121   1.083       .  S
C2117      C2884   1.430       .  A
C2117      C2118   1.468   1_565  A
C2118      C2119   1.525       .  S
C2119      H2123   1.112       .  S
C2119      H2124   1.099       .  S
C2119      H2125   1.101       .  S
C2122      H2126   1.111       .  S
C2122      H2127   1.110       .  S
C2122      H2128   1.111       .  S
C2129      C2130   1.395       .  A
C2129      C2902   1.409       .  A
C2129      H2904   1.085       .  S
C2130      C2131   1.430   1_545  A
C2131      C2138   1.505       .  S
C2131      C2132   1.424       .  A
C2132      C2133   1.413   1_565  A
C2132      H2137   1.077       .  S
C2133      C2902   1.459       .  A
C2134      C2135   1.520       .  S
C2134      C2897   1.418       .  A
C2134      C2901   1.458       .  A
C2135      H2139   1.111       .  S
C2135      H2908   1.101       .  S
C2135      H2141   1.111       .  S
H2136      C2897   1.085       .  S
C2138      H2142   1.109   1_565  S
C2138      H2143   1.110       .  S
C2138      H2144   1.111       .  S
H2140      C2903   1.099       .  S
C2145      C2146   1.419       .  A
C2145      C2150   1.415       .  A
C2145      H2152   1.081       .  S
C2146      C2147   1.447       .  A
C2147      C2154   1.516       .  S
C2147      C2148   1.396       .  A
C2148      C2149   1.383       .  A
C2148      H2153   1.086       .  S
C2149      C2150   1.417       .  A
C2150      C2151   1.507       .  S
C2151      H2155   1.111       .  S
C2151      H2156   1.108       .  S
C2151      H2157   1.110       .  S
C2154      H2158   1.107       .  S
C2154      H2159   1.106       .  S
C2154      H2160   1.111       .  S
C2161      C2162   1.424       .  A
C2161      C2166   1.409       .  A
C2161      H2168   1.061       .  S
C2162      C2340   1.627       .  S
C2162      C2163   1.447       .  A
C2163      C2170   1.508       .  S
C2163      C2164   1.433       .  A
C2164      C2165   1.410       .  A
C2164      H2169   1.084       .  S
C2165      C2166   1.411       .  A
C2166      C2167   1.509       .  S
C2167      H2171   1.111       .  S
C2167      H2172   1.110       .  S
C2167      H2173   1.093       .  S
C2170      H2174   1.104       .  S
C2170      H2175   1.109       .  S
C2170      H2176   1.111       .  S
C2177      C2178   1.410       .  A
C2177      C2182   1.420       .  A
C2177      H2184   1.084       .  S
C2178      C2179   1.415       .  A
C2179      C2186   1.509       .  S
C2179      C2180   1.408       .  A
C2180      C2181   1.413       .  A
C2180      H2185   1.084       .  S
C2181      C2182   1.424       .  A
C2182      C2183   1.507       .  S
C2183      H2187   1.111       .  S
C2183      H2188   1.105       .  S
C2183      H2189   1.110       .  S
C2186      H2190   1.111       .  S
C2186      H2191   1.108       .  S
C2186      H2192   1.110       .  S
C2193      C2194   1.409       .  A
C2193      C2198   1.410       .  A
C2193      H2200   1.084       .  S
C2194      C2195   1.412       .  A
C2195      C2202   1.509       .  S
C2195      C2196   1.400       .  A
C2196      C2197   1.407       .  A
C2196      H2201   1.084       .  S
C2197      C2198   1.416       .  A
C2198      C2199   1.507       .  S
C2199      H2203   1.111       .  S
C2199      H2204   1.108       .  S
C2199      H2205   1.110       .  S
C2202      H2206   1.108       .  S
C2202      H2207   1.110       .  S
C2202      H2208   1.111       .  S
C2209      C2210   1.410       .  A
C2209      C2214   1.411       .  A
C2209      H2216   1.084       .  S
C2210      C2211   1.414       .  A
C2211      C2218   1.506       .  S
C2211      C2212   1.413       .  A
C2212      C2213   1.412       .  A
C2212      H2217   1.077       .  S
C2213      C2214   1.419       .  A
C2214      C2215   1.508       .  S
C2215      H2219   1.111       .  S
C2215      H2220   1.111       .  S
C2215      H2221   1.108       .  S
C2218      H2222   1.110       .  S
C2218      H2223   1.108       .  S
C2218      H2224   1.111       .  S
C2225      C2226   1.403       .  A
C2225      C2230   1.393       .  A
C2225      H2232   1.084       .  S
C2226      C2227   1.411       .  A
C2227      C2234   1.510       .  S
C2227      C2228   1.403       .  A
C2228      C2229   1.411       .  A
C2228      H2233   1.083       .  S
C2229      C2230   1.400       .  A
C2230      C2231   1.509       .  S
C2231      H2235   1.108       .  S
C2231      H2236   1.102       .  S
C2231      H2237   1.111       .  S
C2234      H2238   1.110       .  S
C2234      H2239   1.110       .  S
C2234      H2240   1.110       .  S
C2241      C2242   1.397       .  A
C2241      C2246   1.404       .  A
C2241      H2248   1.083       .  S
C2242      C2243   1.421       .  A
C2243      C2250   1.505       .  S
C2243      C2244   1.428       .  A
C2244      C2245   1.424       .  A
C2244      H2249   1.078       .  S
C2245      C2305   1.600       .  S
C2245      C2246   1.443       .  A
C2246      C3015   1.510       .  S
C2247      C3014   1.513       .  S
C2247      H2251   1.111       .  S
C2247      H2252   1.103   1_565  S
C2247      H3021   1.100       .  S
C2250      H3022   1.111       .  S
C2250      H2255   1.110       .  S
C2250      H2256   1.111       .  S
H2253      C3015   1.100       .  S
H2254      C3018   1.110       .  S
C2257      C2258   1.392   1_545  A
C2257      C2262   1.409       .  A
C2257      H2264   1.085       .  S
C2258      C3027   1.416       .  A
C2259      C2266   1.506       .  S
C2259      C3026   1.419       .  A
C2259      C2260   1.431       .  A
C2260      C3029   1.426       .  A
C2260      H2265   1.075       .  S
C2261      C3028   1.425       .  A
C2261      C2262   1.458   1_565  A
C2262      C2263   1.518       .  S
C2263      H2267   1.111       .  S
C2263      H2268   1.099       .  S
C2263      H2269   1.103       .  S
C2266      H2270   1.110       .  S
C2266      H2271   1.110       .  S
C2266      H2272   1.111       .  S
C2273      C2274   1.432       .  A
C2273      C2278   1.415       .  A
C2273      H2280   1.082       .  S
C2274      C2275   1.442       .  A
C2275      C2282   1.510       .  S
C2275      C2276   1.425       .  A
C2276      C2277   1.416       .  A
C2276      H2281   1.083       .  S
C2277      C2278   1.412       .  A
C2278      C2279   1.505       .  S
C2279      H2283   1.111       .  S
C2279      H2284   1.109       .  S
C2279      H2285   1.109       .  S
C2282      H2286   1.106   1_545  S
C2282      H2287   1.099   1_545  S
C2282      H2288   1.111       .  S
C2289      C2290   1.423       .  A
C2289      C2294   1.429       .  A
C2289      H2296   1.071       .  S
C2290      C2305   1.623       .  S
C2290      C2291   1.457       .  A
C2291      C2298   1.513       .  S
C2291      C2292   1.417       .  A
C2292      C2293   1.393       .  A
C2292      H2297   1.086       .  S
C2293      C2294   1.421       .  A
C2294      C2295   1.507       .  S
C2295      H2299   1.111       .  S
C2295      H2300   1.109       .  S
C2295      H2301   1.111       .  S
C2298      H2302   1.094       .  S
C2298      H2303   1.109       .  S
C2298      H2304   1.112       .  S
C2305      C3029   1.619       .  S
C2305      C3042   1.608       .  S
N2306      C2311   1.348   1_556  A
N2306      C2310   1.356       .  A
N2306      H2338   1.044       .  S
N2307      C2315   1.343       .  A
N2308      C2313   1.350   1_556  A
N2308      C2312   1.351       .  A
N2308      H2339   1.043       .  S
N2309      C2317   1.348       .  A
C2310      C2318   1.388       .  A
C2310      C2326   1.426       .  A
C2311      C2327   1.416       .  A
C2311      C2319   1.386       .  A
C2312      C2320   1.388       .  A
C2312      C2329   1.415       .  A
C2313      C2328   1.414       .  A
C2313      C2321   1.388   1_554  A
C2314      C2326   1.406       .  A
C2314      C2322   1.386       .  A
C2315      C2329   1.399       .  A
C2315      C2323   1.386       .  A
C2316      C2324   1.388       .  A
C2316      C2327   1.415       .  A
C2317      C2325   1.385       .  A
C2317      C2328   1.408       .  A
C2318      C2319   1.387   1_556  A
C2318      H2330   1.082       .  S
C2319      H2331   1.082       .  S
C2320      C2321   1.386       .  A
C2320      H2332   1.082       .  S
C2321      H2333   1.082   1_556  S
C2322      H2334   1.082       .  S
C2323      H2335   1.082       .  S
C2324      H2336   1.081       .  S
C2325      H2337   1.082       .  S
C2326      C2978   1.506       .  S
C2327      C2946   1.492       .  S
C2328      C2962   1.493       .  S
C2329      C2994   1.481       .  S
C2340      C2885   1.628       .  S
C2340      C2901   1.618       .  S
C2340      C2914   1.587       .  S
C2341      C2834   1.595       .  S
C2341      C2866   1.605       .  S
N2342      C2347   1.350       .  A
N2342      C2346   1.351   1_556  A
N2342      H2374   1.043       .  S
N2343      C2350   1.346       .  A
N2344      C2349   1.352   1_554  A
N2344      C2348   1.359       .  A
N2344      H2375   1.041       .  S
N2345      C2352   1.346       .  A
C2346      C2354   1.389       .  A
C2346      C2362   1.417       .  A
C2347      C2363   1.411       .  A
C2347      C2355   1.386       .  A
C2348      C2356   1.386       .  A
C2348      C2365   1.427       .  A
C2349      C2364   1.423       .  A
C2349      C2357   1.388   1_556  A
C2350      C2362   1.413       .  A
C2350      C2358   1.389       .  A
C2351      C2365   1.413       .  A
C2351      C2359   1.384       .  A
C2352      C2360   1.385       .  A
C2352      C2363   1.402       .  A
C2353      C2361   1.393       .  A
C2353      C2364   1.422       .  A
C2354      C2355   1.383   1_554  A
C2354      H2366   1.082       .  S
C2355      H2367   1.082       .  S
C2356      C2357   1.385       .  A
C2356      H2368   1.082       .  S
C2357      H2369   1.082   1_554  S
C2358      H2370   1.083       .  S
C2359      H2371   1.082       .  S
C2360      H2372   1.082       .  S
C2361      H2373   1.080       .  S
C2362      C2754   1.495       .  S
C2363      C2789   1.478       .  S
C2364      C2805   1.486       .  S
C2365      C2773   1.509       .  S
O2376      C2384   1.280       .  A
O2376     Co2396   2.035       .  S
O2377      C2385   1.285       .  A
O2377     Co2397   2.061       .  S
O2378      C2386   1.255       .  A
O2378     Co2398   1.986       .  S
O2379      C2387   1.256       .  A
O2379     Co2399   2.008       .  S
O2380      C2386   1.269       .  A
O2380     Co2397   2.043       .  S
O2381      C2387   1.243       .  A
O2381     Co2396   1.968       .  S
O2382      C2385   1.263       .  A
O2382     Co2399   1.982       .  S
O2383      C2384   1.279       .  A
O2383     Co2398   1.944       .  S
C2384      C2997   1.469       .  S
C2385      C2933   1.511       .  S
C2386      C2869   1.519       .  S
C2387      C2802   1.478       .  S
O2388      C2401   1.268       .  A
O2388     Co2396   1.976       .  S
O2389      C2402   1.262       .  A
O2389     Co2397   1.977       .  S
O2390      C2403   1.282       .  A
O2390     Co2398   2.086       .  S
O2391      C2404   1.272       .  A
O2391     Co2399   2.030       .  S
O2392      C2404   1.255       .  A
O2392     Co2397   1.973       .  S
O2393      C2403   1.252       .  A
O2393     Co2396   1.901       .  S
O2394      C2401   1.287       .  A
O2394     Co2399   2.060       .  S
O2395      C2402   1.280       .  A
O2395     Co2398   2.051       .  S
Co2396     O2400   2.009       .  S
Co2397     O2400   2.070       .  S
Co2398     O2400   2.071       .  S
Co2399     O2400   2.081       .  S
C2401      C2981   1.499       .  S
C2402      C2917   1.512       .  S
C2403      C2786   1.463       .  S
C2404      C2853   1.495       .  S
O2405      C2413   1.247       .  A
O2405     Co2425   1.985       .  S
O2406      C2414   1.267       .  A
O2406     Co2426   1.838       .  S
O2407      C2415   1.275       .  A
O2407     Co2427   2.037       .  S
O2408      C2416   1.271       .  A
O2408     Co2428   2.063       .  S
O2409      C2415   1.269       .  A
O2409     Co2426   1.962       .  S
O2410      C2416   1.253       .  A
O2410     Co2425   1.957       .  S
O2411      C2414   1.317       .  A
O2411     Co2428   2.167       .  S
O2412      C2413   1.269       .  A
O2412     Co2427   2.054       .  S
C2413      C3061   1.516       .  S
C2414      C2949   1.482       .  S
C2415      C2770   1.507       .  S
C2416      C2722   1.525       .  S
O2417      C2430   1.276       .  A
O2417     Co2425   2.073       .  S
O2418      C2431   1.273       .  A
O2418     Co2426   2.036       .  S
O2419      C2432   1.261       .  A
O2419     Co2427   1.952       .  S
O2420      C2433   1.234       .  A
O2420     Co2428   1.945       .  S
O2421      C2433   1.249       .  A
O2421     Co2426   2.057       .  S
O2422      C2432   1.291       .  A
O2422     Co2425   2.093       .  S
O2423      C2430   1.248       .  A
O2423     Co2428   1.958       .  S
O2424      C2431   1.264       .  A
O2424     Co2427   1.973       .  S
Co2425     O2429   2.089       .  S
Co2426     O2429   1.989       .  S
Co2427     O2429   2.110       .  S
Co2428     O2429   2.162       .  S
C2430      C3045   1.530       .  S
C2431      C2965   1.487       .  S
C2432      C2741   1.528       .  S
C2433      C2757   1.481       .  S
O2434      C2442   1.253       .  A
O2434     Co2454   1.977       .  S
O2435     Co2455   1.959       .  S
O2436      C2444   1.305       .  A
O2436     Co2456   2.153       .  S
O2437      C2445   1.275       .  A
O2437     Co2457   2.060       .  S
O2438     Co2455   1.841       .  S
O2440      C2443   1.274   1_565  A
O2440     Co2457   2.034       .  S
O2441      C2442   1.274       .  A
O2441     Co2456   2.057       .  S
C2442      C2821   1.533       .  S
C2443      C2674   1.489       .  S
C2444      C2693   1.490       .  S
C2445      C2882   1.533       .  S
O2447      C2460   1.295       .  A
O2448      C2461   1.266       .  A
O2448     Co2456   1.987       .  S
O2449      C2462   1.259       .  A
O2449     Co2457   2.009   1_455  S
O2450      C2462   1.227   1_655  A
O2451      C2461   1.287       .  A
O2451     Co2454   2.065       .  S
O2452      C2459   1.248       .  A
O2452     Co2457   1.945       .  S
O2453      C2460   1.272       .  A
O2453     Co2456   1.913       .  S
Co2454     O2458   2.039       .  S
Co2456     O2458   2.097       .  S
C2459      C2837   1.514       .  S
C2460      C2661   1.485       .  S
C2461      C2898   1.532       .  S
C2462      C2709   1.438       .  S
O2463      C2471   1.264       .  A
O2463     Co2483   2.008       .  S
O2464      C2472   1.261       .  A
O2464     Co2484   1.981   1_565  S
O2465      C2473   1.269       .  A
O2465     Co2485   1.929       .  S
O2466      C2474   1.256       .  A
O2466     Co2486   1.976       .  S
O2469      C2472   1.260   1_655  A
O2469     Co2486   1.979       .  S
O2470      C2471   1.260       .  A
O2470     Co2485   2.033       .  S
C2471      C3026   1.522       .  S
C2472      C2610   1.456       .  S
C2473      C2629   1.498       .  S
C2474      C2565   1.510       .  S
O2477      C2490   1.279       .  A
O2477     Co2485   2.043       .  S
O2478      C2491   1.250       .  A
O2478     Co2486   1.999       .  S
O2479      C2491   1.250   1_545  A
O2479     Co2484   2.000   1_655  S
O2480      C2490   1.266       .  A
O2480     Co2483   1.986       .  S
O2481      C2488   1.265       .  A
O2481     Co2486   1.999       .  S
O2482      C2489   1.310       .  A
O2482     Co2485   2.144       .  S
C2488      C3010   1.515       .  S
C2489      C2597   1.492       .  S
C2490      C2581   1.527       .  S
C2491      C2642   1.497   1_565  S
N2492      C2497   1.351       .  A
N2492      C2496   1.352       .  A
N2492      H2524   1.044       .  S
N2493      C2500   1.347       .  A
N2493      C2501   1.342       .  A
N2494      C2499   1.350       .  A
N2494      C2498   1.350       .  A
N2494      H2525   1.043       .  S
N2495      C2502   1.345       .  A
N2495      C2503   1.345       .  A
C2496      C2504   1.388   1_455  A
C2496      C2512   1.422       .  A
C2497      C2513   1.417       .  A
C2497      C2505   1.387   1_455  A
C2498      C2506   1.389       .  A
C2498      C2515   1.413       .  A
C2499      C2514   1.413       .  A
C2499      C2507   1.387       .  A
C2500      C2512   1.409       .  A
C2500      C2508   1.386       .  A
C2501      C2515   1.404       .  A
C2501      C2509   1.388       .  A
C2502      C2510   1.387       .  A
C2502      C2513   1.406       .  A
C2503      C2511   1.386       .  A
C2503      C2514   1.400       .  A
C2504      C2505   1.383       .  A
C2504      H2516   1.082       .  S
C2505      H2517   1.082       .  S
C2506      C2507   1.381       .  A
C2506      H2518   1.082       .  S
C2507      H2519   1.082       .  S
C2508      C2509   1.378       .  A
C2508      H2520   1.082       .  S
C2509      H2521   1.083       .  S
C2510      C2511   1.372       .  A
C2510      H2522   1.082       .  S
C2511      H2523   1.082       .  S
C2514      C2613   1.478       .  S
C2515      C2706   1.482       .  S
N2526      C2531   1.357       .  A
N2526      C2530   1.357       .  A
N2526      H2558   1.036       .  S
N2527      C2534   1.352       .  A
N2527      C2535   1.352       .  A
N2528      C2533   1.354       .  A
N2528      C2532   1.353       .  A
N2528      H2559   1.034       .  S
N2529      C2536   1.350       .  A
N2529      C2537   1.350       .  A
C2530      C2538   1.388       .  A
C2530      C2546   1.425       .  A
C2531      C2547   1.423       .  A
C2531      C2539   1.386       .  A
C2532      C2540   1.387       .  A
C2532      C2549   1.416       .  A
C2533      C2548   1.415       .  A
C2533      C2541   1.386       .  A
C2534      C2546   1.414       .  A
C2534      C2542   1.388       .  A
C2535      C2549   1.412       .  A
C2535      C2543   1.386       .  A
C2536      C2544   1.388       .  A
C2536      C2547   1.411       .  A
C2537      C2545   1.385       .  A
C2537      C2548   1.408       .  A
C2538      C2539   1.387       .  A
C2538      H2550   1.082       .  S
C2539      H2551   1.083       .  S
C2540      C2541   1.383       .  A
C2540      H2552   1.082       .  S
C2541      H2553   1.082       .  S
C2542      C2543   1.366       .  A
C2542      H2554   1.082       .  S
C2543      H2555   1.082       .  S
C2544      C2545   1.364       .  A
C2544      H2556   1.082       .  S
C2545      H2557   1.082       .  S
C2546      C2626   1.497       .  S
C2547      C2658   1.494       .  S
C2560      C2562   1.593       .  S
C2560      C2738   1.611       .  S
C2561      C2562   1.411       .  A
C2561      C2566   1.416       .  A
C2561      H2568   1.080       .  S
C2563      C2570   1.513       .  S
C2563      C2564   1.419       .  A
C2564      H2569   1.084       .  S
C2565      C2566   1.423       .  A
C2566      C2567   1.506       .  S
C2567      H2571   1.111       .  S
C2567      H2572   1.108       .  S
C2567      H2573   1.110   1_655  S
C2570      H2574   1.105       .  S
C2570      H2575   1.101       .  S
C2570      H2576   1.111       .  S
C2577      C2582   1.414       .  A
C2577      H2584   1.074       .  S
C2578      C2579   1.446       .  A
C2579      C2586   1.510       .  S
C2579      C2580   1.429       .  A
C2580      C2581   1.407       .  A
C2580      H2585   1.083       .  S
C2582      C2583   1.514       .  S
C2583      H2587   1.111       .  S
C2583      H2588   1.111       .  S
C2583      H2589   1.110       .  S
C2586      H2590   1.101       .  S
C2586      H2591   1.103       .  S
C2586      H2592   1.111       .  S
C2593      C2594   1.388       .  A
C2593      C2598   1.391       .  A
C2593      H2600   1.085       .  S
C2595      C2602   1.507       .  S
C2595      C2596   1.412       .  A
C2596      H2601   1.083       .  S
C2597      C2598   1.434       .  A
C2598      C2599   1.514       .  S
C2599      H2603   1.110       .  S
C2599      H2604   1.105       .  S
C2599      H2605   1.110       .  S
C2602      H2606   1.107       .  S
C2602      H2607   1.110       .  S
C2602      H2608   1.111       .  S
C2609      C2610   1.395   1_655  A
C2609      C2614   1.394   1_655  A
C2609      H2616   1.083       .  S
C2611      C2618   1.505       .  S
C2611      C2612   1.404       .  A
C2612      H2617   1.084       .  S
C2613      C2614   1.415       .  A
C2614      C2615   1.510   1_455  S
C2615      H2619   1.111       .  S
C2615      H2620   1.107       .  S
C2615      H2621   1.110       .  S
C2618      H2622   1.105       .  S
C2618      H2623   1.110       .  S
C2618      H2624   1.111       .  S
C2625      C2626   1.403       .  A
C2625      C2630   1.411       .  A
C2625      H2632   1.084       .  S
C2627      C2634   1.506       .  S
C2627      C2628   1.405       .  A
C2628      H2633   1.080       .  S
C2629      C2630   1.425       .  A
C2630      C2631   1.508       .  S
C2631      H2635   1.111       .  S
C2631      H2636   1.106       .  S
C2631      H2637   1.110       .  S
C2634      H2638   1.110       .  S
C2634      H2639   1.110       .  S
C2634      H2640   1.111       .  S
C2641      C2642   1.410       .  A
C2641      C2646   1.406       .  A
C2641      H2648   1.082       .  S
C2642      C2643   1.423   1_545  A
C2643      C2650   1.508       .  S
C2643      C2644   1.404       .  A
C2644      C2645   1.400   1_565  A
C2645      C2646   1.413       .  A
C2646      C2647   1.507       .  S
C2647      H2651   1.110       .  S
C2647      H2653   1.110       .  S
C2650      H2655   1.111       .  S
C2657      C2662   1.406       .  A
C2657      H2664   1.084   1_545  S
C2658      C2659   1.415       .  A
C2659      C2666   1.507       .  S
C2659      C2660   1.406       .  A
C2660      C2661   1.407       .  A
C2660      H2665   1.085       .  S
C2662      C2663   1.508   1_545  S
C2663      H2667   1.108       .  S
C2663      H2668   1.105       .  S
C2663      H2669   1.110       .  S
C2666      H2670   1.109       .  S
C2666      H2671   1.110       .  S
C2666      H2672   1.109       .  S
C2673      C2678   1.401       .  A
C2673      H2680   1.081       .  S
C2674      C2675   1.419   1_545  A
C2675      C2682   1.508       .  S
C2675      C2676   1.405       .  A
C2676      C2677   1.404   1_565  A
C2676      H2681   1.084       .  S
C2678      C2679   1.508       .  S
C2679      H2683   1.111       .  S
C2679      H2684   1.110       .  S
C2679      H2685   1.110       .  S
C2682      H2686   1.110       .  S
C2682      H2687   1.109       .  S
C2682      H2688   1.111       .  S
C2689      C2690   1.393       .  A
C2689      C2694   1.393       .  A
C2689      H2696   1.085       .  S
C2691      C2698   1.507       .  S
C2691      C2692   1.414       .  A
C2692      H2697   1.084       .  S
C2693      C2694   1.431       .  A
C2694      C2695   1.516       .  S
C2695      H2699   1.111       .  S
C2695      H2700   1.110       .  S
C2695      H2701   1.102       .  S
C2698      H2702   1.107       .  S
C2698      H2703   1.110       .  S
C2698      H2704   1.110       .  S
C2705      C2706   1.411       .  A
C2705      C2710   1.389   1_455  A
C2705      H2712   1.084   1_455  S
C2707      C2714   1.507       .  S
C2707      C2708   1.403       .  A
C2708      H2713   1.084       .  S
C2709      C2710   1.395   1_455  A
C2710      C2711   1.509       .  S
C2711      H2715   1.110       .  S
C2711      H2716   1.111       .  S
C2711      H2717   1.110       .  S
C2714      H2718   1.110       .  S
C2714      H2719   1.106       .  S
C2714      H2720   1.106       .  S
C2721      C2722   1.401       .  A
C2721      C2726   1.405       .  A
C2721      H2728   1.085       .  S
C2722      C2723   1.417       .  A
C2723      C2730   1.504       .  S
C2723      C2724   1.430       .  A
C2724      C2725   1.429       .  A
C2724      H2729   1.082       .  S
C2725      C2726   1.450       .  A
C2726      C2727   1.519       .  S
C2727      H2731   1.113       .  S
C2727      H2732   1.095       .  S
C2727      H2733   1.109       .  S
C2730      H2734   1.110       .  S
C2730      H2735   1.110       .  S
C2730      H2736   1.111       .  S
C2737      C2738   1.433       .  A
C2737      C2742   1.418       .  A
C2737      H2744   1.083       .  S
C2738      C2739   1.440       .  A
C2739      C2746   1.508       .  S
C2739      C2740   1.422       .  A
C2740      C2741   1.413       .  A
C2740      H2745   1.083       .  S
C2741      C2742   1.412       .  A
C2742      C2743   1.506       .  S
C2743      H2747   1.111       .  S
C2743      H2748   1.110       .  S
C2743      H2749   1.110       .  S
C2746      H2750   1.105       .  S
C2746      H2751   1.104   1_655  S
C2746      H2752   1.111       .  S
C2753      C2754   1.407       .  A
C2753      C2758   1.397       .  A
C2753      H2760   1.085       .  S
C2754      C2755   1.415       .  A
C2755      C2762   1.507       .  S
C2755      C2756   1.406       .  A
C2756      C2757   1.405       .  A
C2756      H2761   1.078       .  S
C2757      C2758   1.414       .  A
C2758      C2759   1.510       .  S
C2759      H2763   1.110       .  S
C2759      H2764   1.111       .  S
C2759      H2765   1.110       .  S
C2762      H2766   1.106       .  S
C2762      H2767   1.106       .  S
C2762      H2768   1.110       .  S
C2769      C2770   1.410       .  A
C2769      C2774   1.411       .  A
C2769      H2776   1.081       .  S
C2770      C2771   1.422       .  A
C2771      C2778   1.509       .  S
C2771      C2772   1.414       .  A
C2772      C2773   1.407       .  A
C2772      H2777   1.084       .  S
C2773      C2774   1.411       .  A
C2774      C2775   1.505       .  S
C2775      H2779   1.111       .  S
C2775      H2780   1.109       .  S
C2775      H2781   1.110       .  S
C2778      H2782   1.108       .  S
C2778      H2783   1.111       .  S
C2778      H2784   1.111       .  S
C2785      C2786   1.398       .  A
C2785      C2790   1.397       .  A
C2785      H2792   1.077       .  S
C2786      C2787   1.408       .  A
C2787      C2794   1.506       .  S
C2787      C2788   1.406       .  A
C2788      C2789   1.405       .  A
C2788      H2793   1.084       .  S
C2789      C2790   1.407       .  A
C2790      C2791   1.507       .  S
C2791      H2795   1.110       .  S
C2791      H2796   1.109       .  S
C2791      H2797   1.110       .  S
C2794      H2798   1.111       .  S
C2794      H2799   1.110       .  S
C2794      H2800   1.106       .  S
C2801      C2802   1.403       .  A
C2801      C2806   1.409       .  A
C2801      H2808   1.082       .  S
C2802      C2803   1.415       .  A
C2803      C2810   1.503       .  S
C2803      C2804   1.400       .  A
C2804      C2805   1.400       .  A
C2804      H2809   1.085       .  S
C2805      C2806   1.414       .  A
C2806      C2807   1.506       .  S
C2807      H2811   1.111       .  S
C2807      H2812   1.110       .  S
C2807      H2813   1.110       .  S
C2810      H2814   1.111       .  S
C2810      H2815   1.100       .  S
C2810      H2816   1.110       .  S
C2817      C2822   1.417       .  A
C2817      H2824   1.076       .  S
C2818      C2819   1.449       .  A
C2819      C2826   1.506       .  S
C2819      C2820   1.429       .  A
C2820      C2821   1.404       .  A
C2820      H2825   1.084       .  S
C2822      C2823   1.512       .  S
C2823      H2827   1.111       .  S
C2823      H2828   1.110       .  S
C2823      H2829   1.110       .  S
C2826      H2830   1.102       .  S
C2826      H2831   1.111       .  S
C2826      H2832   1.107       .  S
C2833      C2834   1.429       .  A
C2833      C2838   1.409       .  A
C2833      H2840   1.076       .  S
C2834      C2835   1.432       .  A
C2835      C2842   1.511       .  S
C2835      C2836   1.418       .  A
C2836      C2837   1.416       .  A
C2836      H2841   1.084       .  S
C2837      C2838   1.407       .  A
C2838      C2839   1.507       .  S
C2839      H2843   1.111       .  S
C2839      H2844   1.110       .  S
C2842      H2846   1.097       .  S
C2842      H2848   1.111       .  S
C2849      C2850   1.424       .  A
C2849      C2854   1.397       .  A
C2849      H2856   1.078       .  S
C2850      C2851   1.438       .  A
C2851      C2858   1.506       .  S
C2851      C2852   1.423       .  A
C2852      C2853   1.407       .  A
C2852      H2857   1.084       .  S
C2853      C2854   1.405       .  A
C2854      C2855   1.506       .  S
C2855      H2859   1.106       .  S
C2855      H2860   1.110       .  S
C2855      H2861   1.103       .  S
C2858      H2862   1.098       .  S
C2858      H2863   1.110       .  S
C2858      H2864   1.110       .  S
C2865      C2866   1.425       .  A
C2865      C2870   1.414       .  A
C2865      H2872   1.079       .  S
C2866      C2867   1.446       .  A
C2867      C2874   1.514       .  S
C2867      C2868   1.420       .  A
C2868      C2869   1.408       .  A
C2868      H2873   1.085       .  S
C2869      C2870   1.414       .  A
C2870      C2871   1.508       .  S
C2871      H2875   1.111       .  S
C2871      H2876   1.111       .  S
C2871      H2877   1.109       .  S
C2874      H2878   1.109       .  S
C2874      H2879   1.112       .  S
C2874      H2880   1.094       .  S
C2881      C2886   1.407       .  A
C2881      H2888   1.083       .  S
C2882      C2883   1.420       .  A
C2883      C2890   1.503       .  S
C2883      C2884   1.437       .  A
C2884      H2889   1.083       .  S
C2885      C2886   1.464       .  A
C2886      C2887   1.519       .  S
C2887      H2891   1.110       .  S
C2887      H2892   1.100       .  S
C2887      H2893   1.098       .  S
C2890      H2894   1.110       .  S
C2890      H2895   1.110       .  S
C2890      H2896   1.111       .  S
C2897      C2898   1.400       .  A
C2898      C2899   1.426       .  A
C2899      C2906   1.508       .  S
C2899      C2900   1.424       .  A
C2900      C2901   1.420       .  A
C2900      H2905   1.075       .  S
C2902      C2903   1.519       .  S
C2903      H2907   1.110       .  S
C2903      H2909   1.112       .  S
C2906      H2910   1.110       .  S
C2906      H2911   1.110       .  S
C2906      H2912   1.111       .  S
C2913      C2914   1.425       .  A
C2913      C2918   1.427       .  A
C2913      H2920   1.080       .  S
C2914      C2915   1.447       .  A
C2915      C2922   1.520       .  S
C2915      C2916   1.407       .  A
C2916      C2917   1.400       .  A
C2916      H2921   1.085       .  S
C2917      C2918   1.416       .  A
C2918      C2919   1.504       .  S
C2919      H2923   1.111       .  S
C2919      H2924   1.109       .  S
C2919      H2925   1.110       .  S
C2922      H2926   1.107       .  S
C2922      H2927   1.107       .  S
C2922      H2928   1.112       .  S
C2929      C2930   1.427       .  A
C2929      C2934   1.399       .  A
C2929      H2936   1.064       .  S
C2930      C2931   1.445       .  A
C2931      C2938   1.504       .  S
C2931      C2932   1.435       .  A
C2932      C2933   1.412       .  A
C2932      H2937   1.084       .  S
C2933      C2934   1.404       .  A
C2934      C2935   1.509       .  S
C2935      H2939   1.105       .  S
C2935      H2940   1.110       .  S
C2935      H2941   1.103       .  S
C2938      H2942   1.100       .  S
C2938      H2943   1.110       .  S
C2938      H2944   1.111       .  S
C2945      C2946   1.397       .  A
C2945      C2950   1.394       .  A
C2945      H2952   1.085       .  S
C2946      C2947   1.420       .  A
C2947      C2954   1.506       .  S
C2947      C2948   1.410       .  A
C2948      C2949   1.403       .  A
C2948      H2953   1.084       .  S
C2949      C2950   1.424       .  A
C2950      C2951   1.514       .  S
C2951      H2955   1.111       .  S
C2951      H2956   1.110       .  S
C2951      H2957   1.109       .  S
C2954      H2958   1.110       .  S
C2954      H2959   1.109       .  S
C2954      H2960   1.110       .  S
C2961      C2962   1.404       .  A
C2961      C2966   1.399       .  A
C2961      H2968   1.085       .  S
C2962      C2963   1.411       .  A
C2963      C2970   1.506       .  S
C2963      C2964   1.409       .  A
C2964      C2965   1.410       .  A
C2964      H2969   1.084       .  S
C2965      C2966   1.418       .  A
C2966      C2967   1.510       .  S
C2967      H2971   1.111       .  S
C2967      H2972   1.108       .  S
C2967      H2973   1.110       .  S
C2970      H2974   1.108       .  S
C2970      H2975   1.110       .  S
C2970      H2976   1.109       .  S
C2977      C2978   1.392       .  A
C2977      C2982   1.400       .  A
C2977      H2984   1.084       .  S
C2978      C2979   1.426       .  A
C2979      C2986   1.506       .  S
C2979      C2980   1.410       .  A
C2980      C2981   1.401       .  A
C2980      H2985   1.084       .  S
C2981      C2982   1.431       .  A
C2982      C2983   1.501       .  S
C2983      H2987   1.112       .  S
C2983      H2988   1.099       .  S
C2983      H2989   1.098       .  S
C2986      H2990   1.110       .  S
C2986      H2991   1.106       .  S
C2986      H2992   1.110       .  S
C2993      C2994   1.401       .  A
C2993      C2998   1.403       .  A
C2993      H3000   1.084       .  S
C2994      C2995   1.417       .  A
C2995      C3002   1.509       .  S
C2995      C2996   1.398       .  A
C2996      C2997   1.396       .  A
C2996      H3001   1.077       .  S
C2997      C2998   1.417       .  A
C2998      C2999   1.508       .  S
C2999      H3003   1.110       .  S
C2999      H3004   1.110       .  S
C2999      H3005   1.108       .  S
C3002      H3006   1.110       .  S
C3002      H3007   1.106       .  S
C3002      H3008   1.109       .  S
C3009      C3010   1.397       .  A
C3009      C3014   1.401       .  A
C3009      H3016   1.083       .  S
C3010      C3011   1.421       .  A
C3011      C3018   1.506   1_565  S
C3011      C3012   1.426   1_565  A
C3012      C3013   1.423   1_545  A
C3012      H3017   1.078       .  S
C3013      C3014   1.444       .  A
C3015      H3019   1.111       .  S
C3015      H3020   1.102       .  S
C3018      H3023   1.110   1_545  S
C3018      H3024   1.111       .  S
C3025      C3026   1.394       .  A
C3025      C3030   1.410       .  A
C3025      H3032   1.086       .  S
C3027      C3034   1.505       .  S
C3027      C3028   1.429       .  A
C3028      H3033   1.076       .  S
C3029      C3030   1.454       .  A
C3030      C3031   1.515       .  S
C3031      H3035   1.112       .  S
C3031      H3036   1.090       .  S
C3031      H3037   1.110       .  S
C3034      H3038   1.111       .  S
C3034      H3039   1.110       .  S
C3034      H3040   1.111       .  S
C3041      C3042   1.433       .  A
C3041      C3046   1.419       .  A
C3041      H3048   1.083       .  S
C3042      C3043   1.442       .  A
C3043      C3050   1.508       .  S
C3043      C3044   1.422       .  A
C3044      C3045   1.415       .  A
C3044      H3049   1.084       .  S
C3045      C3046   1.411       .  A
C3046      C3047   1.505       .  S
C3047      H3051   1.111       .  S
C3047      H3052   1.110       .  S
C3047      H3053   1.110       .  S
C3050      H3054   1.110       .  S
C3050      H3055   1.088       .  S
C3050      H3056   1.111       .  S
C3057      C3058   1.414       .  A
C3057      C3062   1.425       .  A
C3057      H3064   1.076       .  S
C3058      C3059   1.455       .  A
C3059      C3066   1.513       .  S
C3059      C3060   1.412       .  A
C3060      C3061   1.392       .  A
C3060      H3065   1.086       .  S
C3061      C3062   1.425       .  A
C3062      C3063   1.505       .  S
C3063      H3067   1.111       .  S
C3063      H3068   1.109       .  S
C3063      H3069   1.106       .  S
C3066      H3070   1.095       .  S
C3066      H3071   1.109       .  S
C3066      H3072   1.112       .  S
