geometry optimzed in LAMMPS
_audit_creation_date              2020-12-01 
_audit_creation_method            'lammps2cif' 
_symmetry_space_group_name_H-M    'P1' 
_symmetry_Int_Tables_number       1 
_symmetry_cell_setting            triclinic 
loop_ 
_symmetry_equiv_pos_as_xyz 
  x,y,z 
_cell_length_a                    25.16685074 
_cell_length_b                    24.785760903975223 
_cell_length_c                    25.78532356076354 
_cell_angle_alpha                 90.94903546155778 
_cell_angle_beta                  89.41623549272357 
_cell_angle_gamma                 90.31393942353363 
loop_ 
_atom_site_label 
_atom_site_type_symbol 
_atom_site_fract_x 
_atom_site_fract_y 
_atom_site_fract_z 
_atom_site_charge 
O1          O  0.46423593  0.59935049  0.92845528    -0.80000
O2          O  0.55272536  0.54283568  0.11220808    -0.80100
O3          O  0.40893458  0.54020115  0.03445735    -0.80100
O4          O  0.63248434  0.53785501  0.94255423    -0.80000
O5          O  0.48332153  0.58669251  0.04401864    -0.80100
O6          O  0.56974876  0.59557188  0.93947589    -0.80100
O7          O  0.60069605  0.56025207  0.04275642    -0.80000
O8          O  0.39907364  0.54152859  0.92797392    -0.80100
C9          C  0.41785110  0.58706769  0.91518752     1.09700
C10         C  0.59150209  0.56724763  0.09193104     1.09500
C11         C  0.43395846  0.58154177  0.05229554     1.09700
C12         C  0.61692260  0.58382343  0.92880172     1.09600
O13         O  0.57228905  0.49406279  0.87715458    -0.80000
O14         O  0.46945287  0.48280407  0.08696039    -0.80100
O15         O  0.44391828  0.43628380  0.91863809    -0.80100
O16         O  0.64698027  0.46437674  0.02078402    -0.80000
O17         O  0.56906922  0.45007660  0.05873273    -0.80100
O18         O  0.46669337  0.50103209  0.86454001    -0.80000
O19         O  0.58160670  0.43518164  0.94001837    -0.80000
O20         O  0.44769531  0.42771298  0.02456430    -0.80100
Co21       Co  0.51817652  0.54727240  0.90600677     1.51500
Co22       Co  0.52599512  0.52097606  0.04711211     1.51700
Co23       Co  0.43000638  0.48677452  0.97686580     1.51600
Co24       Co  0.58552865  0.49477310  0.99133189     1.51500
O25         O  0.50856741  0.50958498  0.97306637    -1.42000
C26         C  0.58671764  0.44761952  0.89264930     1.09600
C27         C  0.44922829  0.43857302  0.07236414     1.09700
C28         C  0.44727949  0.45426842  0.87300625     1.09600
C29         C  0.61945020  0.44004126  0.05476227     1.09600
O30         O  0.62451293  0.94865416  0.43697098    -0.80000
O31         O  0.61353885  0.06529332  0.52401222    -0.80100
O32         O  0.58931435  0.05838340  0.39869692    -0.80100
O33         O  0.55596551  0.94727526  0.59974096    -0.80000
O34         O  0.58171171  0.13267947  0.44695708    -0.80100
O35         O  0.61930501  0.94293214  0.54137674    -0.80100
O36         O  0.55624763  0.05628866  0.58907939    -0.80000
O37         O  0.56987188  0.95424416  0.37318227    -0.80100
C38         C  0.61478410  0.93988091  0.38989543     1.09700
C39         C  0.60054619  0.07350348  0.57124622     1.09500
C40         C  0.60150833  0.10849118  0.40782473     1.09700
C41         C  0.60268111  0.93291827  0.58632337     1.09600
O42         O  0.52055202  0.88113591  0.53413816    -0.80000
O43         O  0.48838463  0.08214232  0.42638324    -0.80100
O44         O  0.46534710  0.95384649  0.41941123    -0.80100
O45         O  0.45212150  0.05148429  0.54019338    -0.80000
O46         O  0.51119983  0.11321339  0.52364143    -0.80100
O47         O  0.52338469  0.88859377  0.43053912    -0.80000
O48         O  0.45675050  0.94108414  0.54419731    -0.80000
O49         O  0.49601767  0.03454671  0.35293128    -0.80100
Co50       Co  0.57183728  0.91948140  0.48576930     1.51500
Co51       Co  0.55429072  0.06808210  0.47407743     1.51700
Co52       Co  0.52423770  0.00675735  0.41489477     1.51600
Co53       Co  0.50595258  0.99892345  0.56347334     1.51500
O54         O  0.53763040  0.99223749  0.49047118    -1.42000
C55         C  0.47295722  0.89320025  0.54712149     1.09600
C56         C  0.47535923  0.07365503  0.37836369     1.09700
C57         C  0.47788053  0.90436533  0.41558415     1.09600
C58         C  0.46535326  0.10067598  0.54009270     1.09600
O59         O  0.96642554  0.41417621  0.42746585    -0.80000
O60         O  0.07107436  0.41719138  0.51593436    -0.80100
O61         O  0.07977227  0.44340454  0.39628202    -0.80100
O62         O  0.95726736  0.47592709  0.59160660    -0.80000
O63         O  0.14781813  0.45227478  0.44876714    -0.80100
O64         O  0.95033618  0.41344868  0.53103614    -0.80100
O65         O  0.06470418  0.46982103  0.58538995    -0.80000
O66         O  0.97915452  0.46980951  0.36520383    -0.80100
C67         C  0.96049149  0.42523510  0.38062467     1.09700
C68         C  0.07976303  0.42555961  0.56369050     1.09500
C69         C  0.12803971  0.43099025  0.40876443     1.09700
C70         C  0.94256037  0.42902385  0.57714583     1.09600
O71         O  0.89645366  0.51742537  0.52667494    -0.80000
O72         O  0.10301511  0.54820516  0.42920686    -0.80100
O73         O  0.98146873  0.57407471  0.41351097    -0.80100
O74         O  0.06654576  0.57953040  0.54130727    -0.80000
O75         O  0.12489987  0.51756192  0.52567712    -0.80100
O76         O  0.91254094  0.51922207  0.42277314    -0.80000
O77         O  0.95818739  0.57876320  0.54256516    -0.80000
O78         O  0.06543442  0.54055762  0.35192349    -0.80100
Co79       Co  0.93537436  0.46620323  0.47698794     1.51500
Co80       Co  0.08240883  0.47981024  0.47159374     1.51700
Co81       Co  0.03036740  0.51170334  0.41093214     1.51600
Co82       Co  0.01189965  0.52568536  0.56041986     1.51500
O83         O  0.00786279  0.49822068  0.48562026    -1.42000
C84         C  0.91011075  0.56402948  0.54406402     1.09600
C85         C  0.10126477  0.56097807  0.38080294     1.09700
C86         C  0.93213273  0.56434560  0.40840834     1.09600
C87         C  0.11382666  0.56379516  0.54333952     1.09600
C88         C  0.80160856  0.30504600  0.26454264     0.03200
C89         C  0.77969791  0.25742483  0.28490697    -0.12900
C90         C  0.72915684  0.23906105  0.27039153     0.00700
C91         C  0.70337969  0.26404331  0.22922762    -0.11400
C92         C  0.72643817  0.30918401  0.20509433     0.03200
C93         C  0.77465746  0.33031024  0.22414530    -0.10900
H94         H  0.80000761  0.23649306  0.31538155     0.08800
H95         H  0.66434424  0.25006065  0.21770629     0.06300
H96         H  0.78901474  0.36846994  0.20964071     0.06200
C97         C  0.79847732  0.70073473  0.28424578     0.03200
C98         C  0.78464453  0.75359221  0.29921941    -0.12900
C99         C  0.73838576  0.77787862  0.27967103     0.00700
C100        C  0.71044991  0.75073845  0.23992308    -0.11400
C101        C  0.72662537  0.69981554  0.22174414     0.03200
C102        C  0.77006646  0.67468881  0.24444412    -0.10900
H103        H  0.80738957  0.77352620  0.32933624     0.08800
H104        H  0.67364248  0.76696071  0.22562316     0.06300
H105        H  0.77941304  0.63331713  0.23370454     0.06200
C106        C  0.71076299  0.30985262  0.75487246     0.03200
C107        C  0.75822874  0.33127310  0.73545619    -0.12900
C108        C  0.78154750  0.31061808  0.68962497     0.00700
C109        C  0.75860850  0.26451799  0.66589997    -0.11400
C110        C  0.71361492  0.23903247  0.68785211     0.03200
C111        C  0.69044767  0.26213422  0.73307469    -0.10900
H112        H  0.77515337  0.36610342  0.75514528     0.08800
H113        H  0.77381854  0.25056400  0.62870221     0.06300
H114        H  0.65468822  0.24509406  0.74992850     0.06200
C115        C  0.34211550  0.75687740  0.30008226     0.03200
C116        C  0.35981174  0.74048682  0.25045736    -0.12900
C117        C  0.33414192  0.69852622  0.22277238     0.00700
C118        C  0.28862075  0.67482152  0.24502633    -0.11400
C119        C  0.26874972  0.69258719  0.29344386     0.03200
C120        C  0.29595867  0.73345037  0.32097607    -0.10900
H121        H  0.39482436  0.75970536  0.23425219     0.08800
H122        H  0.27024921  0.64010309  0.22643603     0.06300
H123        H  0.28240634  0.74550973  0.35944298     0.06200
C124        C  0.32629572  0.68962346  0.73733808     0.03200
C125        C  0.35254967  0.73312830  0.71321885    -0.12900
C126        C  0.34007685  0.74768321  0.66252509     0.00700
C127        C  0.29776602  0.72233021  0.63734397    -0.11400
C128        C  0.27041614  0.68013903  0.66097055     0.03200
C129        C  0.28522053  0.66304612  0.71035203    -0.10900
H130        H  0.38429713  0.75461039  0.73283974     0.08800
H131        H  0.28825182  0.73303155  0.59788946     0.06300
H132        H  0.26609758  0.62772921  0.72632254     0.06200
C133        C  0.33764182  0.33528173  0.71104325     0.03200
C134        C  0.28707605  0.35123670  0.69466695    -0.12900
C135        C  0.25927055  0.32120028  0.65648504     0.00700
C136        C  0.28440926  0.27535167  0.63403382    -0.11400
C137        C  0.33638729  0.26128138  0.64759230     0.03200
C138        C  0.36179861  0.29042232  0.68734134    -0.10900
H139        H  0.27038647  0.38784167  0.71112557     0.08800
H140        H  0.26477063  0.25165250  0.60428862     0.06300
H141        H  0.40157174  0.27925807  0.69869044     0.06200
C142        C  0.72040328  0.69724308  0.76047718     0.03200
C143        C  0.70232036  0.74799866  0.74340359    -0.12900
C144        C  0.71825865  0.76819748  0.69500280     0.00700
C145        C  0.75681225  0.73982378  0.66605473    -0.11400
C146        C  0.77394060  0.68896007  0.68107158     0.03200
C147        C  0.75541101  0.66765714  0.72798734    -0.10900
H148        H  0.67360570  0.77053886  0.76623836     0.08800
H149        H  0.77055770  0.75546713  0.62924903     0.06300
H150        H  0.76705293  0.62722331  0.73792650     0.06200
C151        C  0.33990995  0.22918154  0.27996241     0.03200
C152        C  0.36186690  0.25512898  0.23665576    -0.12900
C153        C  0.33932147  0.30270951  0.21839364     0.00700
C154        C  0.29324063  0.32340549  0.24234639    -0.11400
C155        C  0.27063093  0.29804835  0.28548344     0.03200
C156        C  0.29390092  0.25063464  0.30375451    -0.10900
H157        H  0.39915791  0.24114323  0.22003812     0.08800
H158        H  0.27741549  0.36158341  0.22980046     0.06300
H159        H  0.27766821  0.23195288  0.33819942     0.06200
C160        C  0.12731644  0.39662260  0.64389753    -0.21200
C161        C  0.11695302  0.38939171  0.59077804    -0.09200
C162        C  0.14927512  0.35361456  0.56176748     0.29600
C163        C  0.19429535  0.33117659  0.58365707    -0.21200
C164        C  0.20708575  0.34072288  0.63606815    -0.09300
C165        C  0.17100898  0.37157838  0.66672288     0.29600
F166        F  0.17779502  0.37821761  0.71857474    -0.19800
H167        H  0.10248558  0.42300384  0.66754357     0.18000
H168        H  0.22037267  0.30844814  0.55804408     0.18000
F169        F  0.13987667  0.34301727  0.51087930    -0.19800
C170        C  0.18461145  0.67747743  0.61434065    -0.21200
C171        C  0.23005083  0.65066005  0.63118038    -0.09200
C172        C  0.23838047  0.59663297  0.61676129     0.29600
C173        C  0.20103834  0.56940733  0.58661828    -0.21200
C174        C  0.15458214  0.59549252  0.57083679    -0.09300
C175        C  0.14669445  0.65001511  0.58469616     0.29600
F176        F  0.10259786  0.67670907  0.56976586    -0.19800
H177        H  0.17840056  0.71952419  0.62462573     0.18000
H178        H  0.20806233  0.52743342  0.57657638     0.18000
F179        F  0.28307921  0.57055100  0.63106590    -0.19800
C180        C  0.22718558  0.64458614  0.36792073    -0.21200
C181        C  0.22303213  0.66394866  0.31736615    -0.09200
C182        C  0.17677786  0.65231359  0.28893289     0.29600
C183        C  0.13647344  0.62010141  0.31015737    -0.21200
C184        C  0.14145654  0.59913027  0.36013552    -0.09300
C185        C  0.18705172  0.61255580  0.38922301     0.29600
F186        F  0.19434113  0.59288443  0.43745888    -0.19800
H187        H  0.26266486  0.65244489  0.39032332     0.18000
H188        H  0.10173663  0.61088738  0.28712563     0.18000
F189        F  0.17073699  0.67184794  0.24049519    -0.19800
C190        C  0.24077368  0.33787035  0.36950472    -0.21200
C191        C  0.22991454  0.32679264  0.31725328    -0.09200
C192        C  0.18328299  0.34764826  0.29561223     0.29600
C193        C  0.14856041  0.37947275  0.32606020    -0.21200
C194        C  0.16058251  0.39202387  0.37802528    -0.09300
C195        C  0.20710905  0.37038134  0.39945368     0.29600
F196        F  0.22137497  0.38181330  0.44908087    -0.19800
H197        H  0.27695166  0.32323253  0.38672204     0.18000
H198        H  0.11342280  0.39599023  0.30846059     0.18000
F199        F  0.17176442  0.33787157  0.24501140    -0.19800
C200        C  0.85375493  0.68032096  0.62363858    -0.21200
C201        C  0.80781749  0.65690677  0.64494393    -0.09200
C202        C  0.79299575  0.60446258  0.62892429     0.29600
C203        C  0.82474430  0.57549082  0.59347703    -0.21200
C204        C  0.87188226  0.59818758  0.57357970    -0.09300
C205        C  0.88553385  0.65148858  0.58839126     0.29600
F206        F  0.93019984  0.67558913  0.56970767    -0.19800
H207        H  0.86545641  0.72093746  0.63492828     0.18000
H208        H  0.81330405  0.53459391  0.58298725     0.18000
F209        F  0.74749591  0.58150989  0.64698444    -0.19800
C210        C  0.86539920  0.31247380  0.63493805    -0.21200
C211        C  0.82627628  0.34037774  0.66412112    -0.09200
C212        C  0.82904290  0.39736078  0.66661074     0.29600
C213        C  0.86998200  0.42492082  0.64168623    -0.21200
C214        C  0.90740431  0.39722690  0.61101575    -0.09300
C215        C  0.90494522  0.34063161  0.60768886     0.29600
F216        F  0.94017841  0.31272012  0.57756672    -0.19800
H217        H  0.86487636  0.26883791  0.63232743     0.18000
H218        H  0.86999439  0.46864116  0.64332817     0.18000
F219        F  0.79017467  0.42734414  0.68956882    -0.19800
C220        C  0.85061061  0.32779129  0.34576680    -0.21200
C221        C  0.84700330  0.33232425  0.29165871    -0.09200
C222        C  0.88449555  0.36550703  0.26598519     0.29600
C223        C  0.92250084  0.39506666  0.29450412    -0.21200
C224        C  0.92499645  0.39058522  0.34867211    -0.09300
C225        C  0.88939030  0.35522721  0.37366726     0.29600
F226        F  0.88957296  0.34916140  0.42593024    -0.19800
H227        H  0.82189578  0.30455815  0.36765108     0.18000
H228        H  0.94970972  0.42164792  0.27432063     0.18000
F229        F  0.88472521  0.36944605  0.21357139    -0.19800
C230        C  0.91892406  0.64909067  0.35686688    -0.21200
C231        C  0.89746712  0.60283867  0.38064344    -0.09200
C232        C  0.84292273  0.59141142  0.37405432     0.29600
C233        C  0.81183775  0.62357177  0.34259878    -0.21200
C234        C  0.83359685  0.66846008  0.31753699    -0.09300
C235        C  0.88717472  0.68194474  0.32591413     0.29600
F236        F  0.90913047  0.72568349  0.30287852    -0.19800
H237        H  0.96057354  0.65918611  0.36122866     0.18400
H238        H  0.77023003  0.61336832  0.33778272     0.18000
F239        F  0.81932744  0.54863128  0.39729162    -0.19800
C240        C  0.68699280  0.11434470  0.60155834    -0.21200
C241        C  0.63134004  0.11159705  0.60387491    -0.09200
C242        C  0.60365792  0.14889739  0.63549980     0.29600
C243        C  0.63070125  0.18967704  0.66194010    -0.21200
C244        C  0.68646925  0.19314444  0.66019280    -0.09300
C245        C  0.71456667  0.15388913  0.63047827     0.29600
F246        F  0.76847174  0.15308592  0.62972538    -0.19800
H247        H  0.70904823  0.08562154  0.57779623     0.18000
H248        H  0.60711430  0.21958313  0.68255313     0.18000
F249        F  0.54978497  0.14795947  0.63885104    -0.19800
C250        C  0.41866788  0.23288629  0.60040351    -0.21200
C251        C  0.36689672  0.22014735  0.61711266    -0.09200
C252        C  0.34595697  0.16879173  0.60472039     0.29600
C253        C  0.37746888  0.13038343  0.57832079    -0.21200
C254        C  0.43001692  0.14276489  0.56316736    -0.09300
C255        C  0.44981085  0.19505618  0.57370627     0.29600
F256        F  0.49999984  0.20954396  0.55980633    -0.19800
H257        H  0.43534891  0.27249558  0.60832771     0.18000
H258        H  0.36106896  0.09062482  0.57061068     0.18000
F259        F  0.29598411  0.15494204  0.61986748    -0.19800
C260        C  0.37986217  0.18950545  0.35866755    -0.21200
C261        C  0.36992944  0.18554243  0.30528447    -0.09200
C262        C  0.39237756  0.14246411  0.27650667     0.29600
C263        C  0.42513335  0.10503733  0.30070002    -0.21200
C264        C  0.43646423  0.11006675  0.35390158    -0.09300
C265        C  0.41268442  0.15252327  0.38278843     0.29600
F266        F  0.42219494  0.15968920  0.43416908    -0.19800
H267        H  0.36383761  0.22274284  0.38159002     0.18000
H268        H  0.44268014  0.07288620  0.27744400     0.18000
F269        F  0.38297693  0.13678817  0.22495974    -0.19800
C270        C  0.64063687  0.12500803  0.31961847    -0.21200
C271        C  0.63847130  0.13757611  0.37304255    -0.09200
C272        C  0.66895117  0.18095368  0.39227634     0.29600
C273        C  0.69935764  0.21221183  0.35859297    -0.21200
C274        C  0.70005564  0.20129130  0.30489279    -0.09300
C275        C  0.67084002  0.15688441  0.28562070     0.29600
F276        F  0.67132555  0.14452024  0.23414811    -0.19800
H277        H  0.61739948  0.09175349  0.30395357     0.18000
H278        H  0.72114898  0.24636100  0.37447877     0.18000
F279        F  0.66903281  0.19357277  0.44371959    -0.19800
C280        C  0.35154784  0.82806686  0.60698683    -0.21200
C281        C  0.37431149  0.78515520  0.63339627    -0.09200
C282        C  0.42918590  0.77569301  0.62833707     0.29600
C283        C  0.46078542  0.80941994  0.59790040    -0.21200
C284        C  0.43824388  0.85330184  0.57249570    -0.09300
C285        C  0.38311772  0.86210235  0.57699778     0.29600
F286        F  0.35968826  0.90382034  0.55275626    -0.19800
H287        H  0.30921543  0.83541081  0.60995081     0.18000
H288        H  0.50315842  0.80212299  0.59548736     0.18000
F289        F  0.45202577  0.73325484  0.65199152    -0.19800
C290        C  0.64243945  0.89935949  0.66972181    -0.21200
C291        C  0.63235814  0.89305004  0.61645047    -0.09200
C292        C  0.64961454  0.84598531  0.59049181     0.29600
C293        C  0.67659167  0.80638966  0.61682263    -0.21200
C294        C  0.68888231  0.81272996  0.66962744    -0.09300
C295        C  0.67115142  0.85975473  0.69618419     0.29600
F296        F  0.68245157  0.86810223  0.74703113    -0.19800
H297        H  0.62906733  0.93521827  0.69042902     0.18000
H298        H  0.68717892  0.76993934  0.59551530     0.18000
F299        F  0.63870715  0.83716599  0.53954655    -0.19800
C300        C  0.68629180  0.87177575  0.38629362    -0.21200
C301        C  0.65184725  0.90538303  0.35919811    -0.09200
C302        C  0.65038457  0.90086978  0.30486620     0.29600
C303        C  0.68182502  0.86219667  0.27867513    -0.21200
C304        C  0.71370778  0.82591510  0.30630204    -0.09300
C305        C  0.71578870  0.83195777  0.36073745     0.29600
F306        F  0.74223542  0.79657098  0.39050405    -0.19800
H307        H  0.68776120  0.87356060  0.42819791     0.18000
H308        H  0.67964592  0.85941437  0.23687907     0.18000
F309        F  0.61784207  0.93276743  0.27721300    -0.19800
C310        C  0.42942914  0.78271834  0.33794319    -0.21200
C311        C  0.37535758  0.79423106  0.33177936    -0.09200
C312        C  0.35432131  0.84099758  0.35562582     0.29600
C313        C  0.38750698  0.87644507  0.38356234    -0.21200
C314        C  0.44191942  0.86527502  0.38903847    -0.09300
C315        C  0.46234778  0.81743155  0.36639353     0.29600
F316        F  0.51461888  0.80487219  0.36997962    -0.19800
H317        H  0.44633112  0.74657874  0.32044646     0.18000
H318        H  0.37072454  0.91283324  0.40061721     0.18000
F319        F  0.30219713  0.85331863  0.35042419    -0.19800
C320        C  0.69878976  0.38840163  0.08345694    -0.21200
C321        C  0.64478891  0.40129185  0.09004509    -0.09200
C322        C  0.61699564  0.38052570  0.13317454     0.29600
C323        C  0.64334140  0.34933080  0.16951581    -0.21200
C324        C  0.69777479  0.33809568  0.16381089    -0.09300
C325        C  0.72504008  0.35714705  0.11977383     0.29600
F326        F  0.77725059  0.34582074  0.11194274    -0.19800
H327        H  0.72121161  0.40352396  0.05064957     0.18000
H328        H  0.62149186  0.33570780  0.20329294     0.18000
F329        F  0.56493755  0.39211322  0.14169140    -0.19800
C330        C  0.66894497  0.63065644  0.10263947    -0.21200
C331        C  0.62480406  0.60376734  0.12428606    -0.09200
C332        C  0.61420304  0.61025946  0.17791548     0.29600
C333        C  0.64726945  0.64230994  0.20878713    -0.21200
C334        C  0.69155196  0.66824980  0.18725443    -0.09300
C335        C  0.70223345  0.66261895  0.13393721     0.29600
F336        F  0.74487279  0.68775054  0.11235658    -0.19800
H337        H  0.67814368  0.62635646  0.06165850     0.18000
H338        H  0.63879469  0.64630047  0.24996239     0.18000
F339        F  0.57248135  0.58499002  0.20106657    -0.19800
C340        C  0.35229977  0.62287865  0.09319918    -0.21200
C341        C  0.40788565  0.61901534  0.09000801    -0.09200
C342        C  0.43859356  0.64633674  0.12767323     0.29600
C343        C  0.41424120  0.67291004  0.16948724    -0.21200
C344        C  0.35860247  0.67513381  0.17427477    -0.09300
C345        C  0.32778788  0.65151770  0.13425122     0.29600
F346        F  0.27404207  0.65565731  0.13473048    -0.19800
H347        H  0.32774865  0.60292289  0.06434883     0.18000
H348        H  0.43959997  0.68953058  0.19946054     0.18000
F349        F  0.49247103  0.64448465  0.12646115    -0.19800
C350        C  0.38403764  0.38844038  0.19532971    -0.21200
C351        C  0.36884837  0.33591348  0.18071553    -0.09200
C352        C  0.38296277  0.31587708  0.13123756     0.29600
C353        C  0.41001781  0.34906790  0.09621264    -0.21200
C354        C  0.42430380  0.40219213  0.11052362    -0.09300
C355        C  0.41181466  0.42121448  0.16094348     0.29600
F356        F  0.42493308  0.47203869  0.17677666    -0.19800
H357        H  0.37436112  0.40411987  0.23372766     0.18000
H358        H  0.41941250  0.33337453  0.05777532     0.18000
F359        F  0.36930729  0.26491840  0.11638019    -0.19800
C360        C  0.70061543  0.60750744  0.87923834    -0.21200
C361        C  0.64733747  0.61809506  0.89213756    -0.09200
C362        C  0.62066185  0.65844067  0.86486853     0.29600
C363        C  0.64471961  0.68353612  0.82288139    -0.21200
C364        C  0.69749007  0.67227424  0.80843408    -0.09300
C365        C  0.72599850  0.63520527  0.83869072     0.29600
F366        F  0.77827521  0.62553850  0.82943410    -0.19800
H367        H  0.72243205  0.57735834  0.90009984     0.18000
H368        H  0.62057557  0.71054902  0.80072002     0.18000
F369        F  0.57000465  0.67238163  0.87698845    -0.19800
C370        C  0.62839785  0.35782788  0.87109754    -0.21200
C371        C  0.61499238  0.41044249  0.85609343    -0.09200
C372        C  0.63248313  0.42846629  0.80718926     0.29600
C373        C  0.66363443  0.39527444  0.77518882    -0.21200
C374        C  0.67773651  0.34328301  0.79057625    -0.09300
C375        C  0.65914448  0.32429551  0.83843431     0.29600
F376        F  0.67206222  0.27412107  0.85417713    -0.19800
H377        H  0.61568436  0.34284058  0.90845531     0.18000
H378        H  0.67687326  0.41027006  0.73795720     0.18000
F379        F  0.62093213  0.47870846  0.79053290    -0.19800
C380        C  0.38832966  0.33870269  0.79387742    -0.21200
C381        C  0.36660977  0.36606962  0.75183693    -0.09200
C382        C  0.37420865  0.42216951  0.74856208     0.29600
C383        C  0.40241799  0.45020904  0.78706786    -0.21200
C384        C  0.42294302  0.42302665  0.82987031    -0.09300
C385        C  0.41590818  0.36678838  0.83273109     0.29600
F386        F  0.43566481  0.33888917  0.87302579    -0.19800
H387        H  0.38319848  0.29545332  0.79699351     0.18000
H388        H  0.40690586  0.49354463  0.78410250     0.18000
F389        F  0.35506200  0.44977659  0.70780674    -0.19800
C390        C  0.33678045  0.61781871  0.86739515    -0.21200
C391        C  0.39198846  0.61922602  0.87477661    -0.09200
C392        C  0.42412316  0.64589836  0.83822821     0.29600
C393        C  0.40205168  0.66914498  0.79497205    -0.21200
C394        C  0.34704198  0.66780875  0.78678005    -0.09300
C395        C  0.31422831  0.64255640  0.82419398     0.29600
F396        F  0.26061304  0.64147727  0.81920180    -0.19800
H397        H  0.31124943  0.59697517  0.89465248     0.18000
H398        H  0.42904872  0.68586003  0.76645376     0.18000
F399        F  0.47777710  0.64562740  0.84149773    -0.19800
loop_ 
_geom_bond_atom_site_label_1 
_geom_bond_atom_site_label_2 
_geom_bond_distance 
_geom_bond_site_symmetry_2 
_ccdc_geom_bond_type 
O1            C9   1.254       .  A
O1          Co21   1.955       .  S
O2           C10   1.259       .  A
O2          Co22   1.885       .  S
O3           C11   1.281       .  A
O3          Co23   2.041   1_554  S
O4           C12   1.264       .  A
O4          Co24   2.030       .  S
O5           C11   1.264       .  A
O5          Co22   1.959       .  S
O6           C12   1.251       .  A
O6          Co21   1.958       .  S
O7           C10   1.296       .  A
O7          Co24   2.114   1_554  S
O8            C9   1.269       .  A
O8          Co23   2.031       .  S
C9          C391   1.480       .  S
C10         C331   1.483       .  S
C11         C341   1.484       .  S
C12         C361   1.485       .  S
O13          C26   1.280       .  A
O13         Co21   2.028       .  S
O14          C27   1.260       .  A
O14         Co22   1.991       .  S
O15          C28   1.267       .  A
O15         Co23   1.968       .  S
O16          C29   1.270       .  A
O16         Co24   1.895   1_554  S
O17          C29   1.296       .  A
O17         Co22   2.097       .  S
O18          C28   1.277       .  A
O18         Co21   2.027       .  S
O19          C26   1.270       .  A
O19         Co24   1.969       .  S
O20          C27   1.258       .  A
O20         Co23   1.983   1_554  S
Co21         O25   1.991       .  S
Co22         O25   1.979   1_554  S
Co23         O25   2.055       .  S
Co24         O25   2.035       .  S
C26         C371   1.486       .  S
C27         C354   1.478       .  S
C28         C384   1.481       .  S
C29         C321   1.485       .  S
O30          C38   1.256       .  A
O30         Co50   1.962       .  S
O31          C39   1.271       .  A
O31         Co51   1.982       .  S
O32          C40   1.296       .  A
O32         Co52   2.115       .  S
O33          C41   1.273       .  A
O33         Co53   2.044       .  S
O34          C40   1.264       .  A
O34         Co51   1.883       .  S
O35          C41   1.256       .  A
O35         Co50   1.955       .  S
O36          C39   1.276       .  A
O36         Co53   2.006   1_545  S
O37          C38   1.269       .  A
O37         Co52   2.028   1_565  S
C38         C301   1.483       .  S
C39         C241   1.476       .  S
C40         C271   1.479       .  S
C41         C291   1.478       .  S
O42          C55   1.276       .  A
O42         Co50   2.029       .  S
O43          C56   1.298       .  A
O43         Co51   2.109       .  S
O44          C57   1.270       .  A
O44         Co52   1.977   1_565  S
O45          C58   1.262       .  A
O45         Co53   1.989   1_545  S
O46          C58   1.264       .  A
O46         Co51   2.000       .  S
O47          C57   1.277       .  A
O47         Co50   2.022       .  S
O48          C55   1.261       .  A
O48         Co53   1.951       .  S
O49          C56   1.272       .  A
O49         Co52   1.896       .  S
Co50         O54   2.004       .  S
Co51         O54   1.975   1_545  S
Co52         O54   2.020   1_545  S
Co53         O54   2.041       .  S
C55         C284   1.473       .  S
C56         C264   1.487       .  S
C57         C314   1.486       .  S
C58         C254   1.487       .  S
O59          C67   1.254       .  A
O59         Co79   1.960       .  S
O60          C68   1.266       .  A
O60         Co80   1.961       .  S
O61          C69   1.300       .  A
O61         Co81   2.132       .  S
O62          C70   1.269       .  A
O62         Co82   2.012   1_655  S
O63          C69   1.257       .  A
O63         Co80   1.871       .  S
O64          C70   1.258       .  A
O64         Co79   1.967       .  S
O65          C68   1.281       .  A
O65         Co82   2.041       .  S
O66          C67   1.267       .  A
O66         Co81   2.026   1_655  S
C67         C224   1.482       .  S
C68         C161   1.487       .  S
C69         C194   1.484       .  S
C70         C214   1.472       .  S
O71          C84   1.279       .  A
O71         Co79   2.036       .  S
O72          C85   1.294       .  A
O72         Co80   2.092       .  S
O73          C86   1.271       .  A
O73         Co81   1.981   1_655  S
O74          C87   1.256       .  A
O74         Co82   1.976       .  S
O75          C87   1.258       .  A
O75         Co80   1.985       .  S
O76          C86   1.279       .  A
O76         Co79   2.024       .  S
O77          C84   1.262       .  A
O77         Co82   1.955   1_655  S
O78          C85   1.273       .  A
O78         Co81   1.899       .  S
Co79         O83   1.998   1_655  S
Co80         O83   1.962       .  S
Co81         O83   2.034       .  S
Co82         O83   2.038       .  S
C84         C204   1.481       .  S
C85         C184   1.482       .  S
C86         C231   1.493       .  S
C87         C174   1.470       .  S
C88         C221   1.498       .  S
C88          C89   1.407       .  A
C88          C93   1.406       .  A
C89          C90   1.401       .  A
C89          H94   1.083       .  S
C90         C274   1.487       .  S
C90          C91   1.404       .  A
C91          C92   1.409       .  A
C91          H95   1.083       .  S
C92         C324   1.488       .  S
C92          C93   1.409       .  A
C93          H96   1.082       .  S
C97         C234   1.485       .  S
C97          C98   1.404       .  A
C97         C102   1.403       .  A
C98          C99   1.415       .  A
C98         H103   1.081       .  S
C99         C304   1.499       .  S
C99         C100   1.409       .  A
C100        C101   1.400       .  A
C100        H104   1.082       .  S
C101        C334   1.472       .  S
C101        C102   1.399       .  A
C102        H105   1.084       .  S
C106        C374   1.480       .  S
C106        C107   1.396       .  A
C106        C111   1.398       .  A
C107        C108   1.404       .  A
C107        H112   1.082       .  S
C108        C211   1.495       .  S
C108        C109   1.411       .  A
C109        C110   1.412       .  A
C109        H113   1.081       .  S
C110        C244   1.498       .  S
C110        C111   1.413       .  A
C111        H114   1.082       .  S
C115        C311   1.485       .  S
C115        C116   1.405       .  A
C115        C120   1.402       .  A
C116        C117   1.409       .  A
C116        H121   1.083       .  S
C117        C344   1.498       .  S
C117        C118   1.406       .  A
C118        C119   1.405       .  A
C118        H122   1.082       .  S
C119        C181   1.483       .  S
C119        C120   1.406       .  A
C120        H123   1.083       .  S
C124        C394   1.493       .  S
C124        C125   1.411       .  A
C124        C129   1.407       .  A
C125        C126   1.401       .  A
C125        H130   1.083       .  S
C126        C281   1.473       .  S
C126        C127   1.394       .  A
C127        C128   1.394       .  A
C127        H131   1.085       .  S
C128        C171   1.465       .  S
C128        C129   1.403       .  A
C129        H132   1.082       .  S
C133        C381   1.484       .  S
C133        C134   1.406       .  A
C133        C138   1.399       .  A
C134        C135   1.413       .  A
C134        H139   1.080       .  S
C135        C164   1.505       .  S
C135        C136   1.416       .  A
C136        C137   1.405       .  A
C136        H140   1.080       .  S
C137        C251   1.489       .  S
C137        C138   1.402       .  A
C138        H141   1.084       .  S
C142        C364   1.501       .  S
C142        C143   1.419       .  A
C142        C147   1.410       .  A
C143        C144   1.406       .  A
C143        H148   1.080       .  S
C144        C294   1.495       .  S
C144        C145   1.403       .  A
C145        C146   1.397       .  A
C145        H149   1.084       .  S
C146        C201   1.481       .  S
C146        C147   1.402       .  A
C147        H150   1.081       .  S
C151        C261   1.486       .  S
C151        C152   1.405       .  A
C151        C156   1.408       .  A
C152        C153   1.402       .  A
C152        H157   1.084       .  S
C153        C351   1.476       .  S
C153        C154   1.404       .  A
C154        C155   1.401       .  A
C154        H158   1.084       .  S
C155        C191   1.483       .  S
C155        C156   1.406       .  A
C156        H159   1.084       .  S
C160        C161   1.405       .  A
C160        C165   1.405       .  A
C160        H167   1.083       .  S
C161        C162   1.408       .  A
C162        C163   1.394       .  A
C162        F169   1.357       .  S
C163        C164   1.408       .  A
C163        H168   1.080       .  S
C164        C165   1.417       .  A
C165        F166   1.357       .  S
C170        C171   1.402       .  A
C170        C175   1.396       .  A
C170        H177   1.083       .  S
C171        C172   1.400       .  A
C172        C173   1.390       .  A
C172        F179   1.358       .  S
C173        C174   1.406       .  A
C173        H178   1.083       .  S
C174        C175   1.407       .  A
C175        F176   1.357       .  S
C180        C181   1.402       .  A
C180        C185   1.395       .  A
C180        H187   1.083       .  S
C181        C182   1.408       .  A
C182        C183   1.400       .  A
C182        F189   1.357       .  S
C183        C184   1.405       .  A
C183        H188   1.083       .  S
C184        C185   1.412       .  A
C185        F186   1.358       .  S
C190        C191   1.400       .  A
C190        C195   1.392       .  A
C190        H197   1.084       .  S
C191        C192   1.409       .  A
C192        C193   1.405       .  A
C192        F199   1.357       .  S
C193        C194   1.406       .  A
C193        H198   1.083       .  S
C194        C195   1.412       .  A
C195        F196   1.358       .  S
C200        C201   1.402       .  A
C200        C205   1.395       .  A
C200        H207   1.083       .  S
C201        C202   1.407       .  A
C202        C203   1.400       .  A
C202        F209   1.357       .  S
C203        C204   1.406       .  A
C203        H208   1.083       .  S
C204        C205   1.411       .  A
C205        F206   1.358       .  S
C210        C211   1.410       .  A
C210        C215   1.402       .  A
C210        H217   1.083       .  S
C211        C212   1.414       .  A
C212        C213   1.391       .  A
C212        F219   1.357       .  S
C213        C214   1.399       .  A
C213        H218   1.084       .  S
C214        C215   1.405       .  A
C215        F216   1.358       .  S
C220        C221   1.405       .  A
C220        C225   1.387       .  A
C220        H227   1.082       .  S
C221        C222   1.415       .  A
C222        C223   1.408       .  A
C222        F229   1.357       .  S
C223        C224   1.405       .  A
C223        H228   1.083       .  S
C224        C225   1.409       .  A
C225        F226   1.359       .  S
C230        C231   1.411       .  A
C230        C235   1.407       .  A
C230        H237   1.083       .  S
C231        C232   1.411       .  A
C232        C233   1.395       .  A
C232        F239   1.358       .  S
C233        C234   1.402       .  A
C233        H238   1.084       .  S
C234        C235   1.405       .  A
C235        F236   1.357       .  S
C240        C241   1.403       .  A
C240        C245   1.406       .  A
C240        H247   1.083       .  S
C241        C242   1.406       .  A
C242        C243   1.389       .  A
C242        F249   1.358       .  S
C243        C244   1.406       .  A
C243        H248   1.082       .  S
C244        C245   1.416       .  A
C245        F246   1.357       .  S
C250        C251   1.404       .  A
C250        C255   1.394       .  A
C250        H257   1.083       .  S
C251        C252   1.408       .  A
C252        C253   1.405       .  A
C252        F259   1.357       .  S
C253        C254   1.409       .  A
C253        H258   1.082       .  S
C254        C255   1.409       .  A
C255        F256   1.358       .  S
C260        C261   1.403       .  A
C260        C265   1.395       .  A
C260        H267   1.083       .  S
C261        C262   1.408       .  A
C262        C263   1.403       .  A
C262        F269   1.357       .  S
C263        C264   1.407       .  A
C263        H268   1.083       .  S
C264        C265   1.411       .  A
C265        F266   1.357       .  S
C270        C271   1.408       .  A
C270        C275   1.405       .  A
C270        H277   1.083       .  S
C271        C272   1.404       .  A
C272        C273   1.394       .  A
C272        F279   1.358       .  S
C273        C274   1.406       .  A
C273        H278   1.083       .  S
C274        C275   1.407       .  A
C275        F276   1.357       .  S
C280        C281   1.401       .  A
C280        C285   1.394       .  A
C280        H287   1.084       .  S
C281        C282   1.406       .  A
C282        C283   1.396       .  A
C282        F289   1.358       .  S
C283        C284   1.404       .  A
C283        H288   1.084       .  S
C284        C285   1.409       .  A
C285        F286   1.358       .  S
C290        C291   1.405       .  A
C290        C295   1.411       .  A
C290        H297   1.083       .  S
C291        C292   1.404       .  A
C292        C293   1.387       .  A
C292        F299   1.359       .  S
C293        C294   1.405       .  A
C293        H298   1.083       .  S
C294        C295   1.414       .  A
C295        F296   1.357       .  S
C300        C301   1.405       .  A
C300        C305   1.391       .  A
C300        H307   1.082       .  S
C301        C302   1.404       .  A
C302        C303   1.406       .  A
C302        F309   1.357       .  S
C303        C304   1.414       .  A
C303        H308   1.081       .  S
C304        C305   1.411       .  A
C305        F306   1.357       .  S
C310        C311   1.403       .  A
C310        C315   1.396       .  A
C310        H317   1.083       .  S
C311        C312   1.407       .  A
C312        C313   1.404       .  A
C312        F319   1.357       .  S
C313        C314   1.408       .  A
C313        H318   1.083       .  S
C314        C315   1.410       .  A
C315        F316   1.358       .  S
C320        C321   1.406       .  A
C320        C325   1.398       .  A
C320        H327   1.083       .  S
C321        C322   1.411       .  A
C322        C323   1.399       .  A
C322        F329   1.358       .  S
C323        C324   1.405       .  A
C323        H328   1.083       .  S
C324        C325   1.408       .  A
C325        F326   1.358       .  S
C330        C331   1.408       .  A
C330        C335   1.402       .  A
C330        H337   1.083       .  S
C331        C332   1.412       .  A
C332        C333   1.394       .  A
C332        F339   1.358       .  S
C333        C334   1.398       .  A
C333        H338   1.084       .  S
C334        C335   1.403       .  A
C335        F336   1.357       .  S
C340        C341   1.404       .  A
C340        C345   1.404       .  A
C340        H347   1.083       .  S
C341        C342   1.410       .  A
C342        C343   1.393       .  A
C342        F349   1.357       .  S
C343        C344   1.406       .  A
C343        H348   1.082       .  S
C344        C345   1.414       .  A
C345        F346   1.357       .  S
C350        C351   1.402       .  A
C350        C355   1.393       .  A
C350        H357   1.084       .  S
C351        C352   1.404       .  A
C352        C353   1.401       .  A
C352        F359   1.357       .  S
C353        C354   1.407       .  A
C353        H358   1.083       .  S
C354        C355   1.409       .  A
C355        F356   1.358       .  S
C360        C361   1.403       .  A
C360        C365   1.406       .  A
C360        H367   1.083       .  S
C361        C362   1.409       .  A
C362        C363   1.389       .  A
C362        F369   1.355       .  S
C363        C364   1.404       .  A
C363        H368   1.081       .  S
C364        C365   1.418       .  A
C365        F366   1.357       .  S
C370        C371   1.410       .  A
C370        C375   1.403       .  A
C370        H377   1.083       .  S
C371        C372   1.410       .  A
C372        C373   1.394       .  A
C372        F379   1.358       .  S
C373        C374   1.403       .  A
C373        H378   1.084       .  S
C374        C375   1.403       .  A
C375        F376   1.357       .  S
C380        C381   1.405       .  A
C380        C385   1.398       .  A
C380        H387   1.083       .  S
C381        C382   1.406       .  A
C382        C383   1.400       .  A
C382        F389   1.357       .  S
C383        C384   1.407       .  A
C383        H388   1.083       .  S
C384        C385   1.407       .  A
C385        F386   1.358       .  S
C390        C391   1.404       .  A
C390        C395   1.407       .  A
C390        H397   1.083       .  S
C391        C392   1.407       .  A
C392        C393   1.386       .  A
C392        F399   1.354       .  S
C393        C394   1.403       .  A
C393        H398   1.082       .  S
C394        C395   1.415       .  A
C395        F396   1.357       .  S
