geometry optimzed in LAMMPS
_audit_creation_date              2020-12-01 
_audit_creation_method            'lammps2cif' 
_symmetry_space_group_name_H-M    'P1' 
_symmetry_Int_Tables_number       1 
_symmetry_cell_setting            triclinic 
loop_ 
_symmetry_equiv_pos_as_xyz 
  x,y,z 
_cell_length_a                    40.56442513 
_cell_length_b                    36.558532597992055 
_cell_length_c                    27.702462214069485 
_cell_angle_alpha                 96.52820245856134 
_cell_angle_beta                  92.15647045559635 
_cell_angle_gamma                 124.62067731915799 
loop_ 
_atom_site_label 
_atom_site_type_symbol 
_atom_site_fract_x 
_atom_site_fract_y 
_atom_site_fract_z 
_atom_site_charge 
C1          C  0.36577447  0.16938036  0.06013386     0.79700
N2          N  0.32539352  0.14755746  0.06088580    -0.78600
C3          C  0.30803864  0.16995465  0.05727655     0.82100
N4          N  0.33125679  0.21425260  0.05296228    -0.78600
C5          C  0.37174862  0.23637941  0.05240005     0.82200
N6          N  0.38871835  0.21361136  0.05594516    -0.80300
C7          C  0.37614756  0.17855051  0.31377679     0.79700
N8          N  0.33556246  0.15563924  0.31334114    -0.78600
C9          C  0.31710812  0.17646255  0.30667043     0.82100
N10         N  0.33971137  0.22047855  0.30166374    -0.78600
C11         C  0.38037669  0.24378016  0.30234715     0.82200
N12         N  0.39849502  0.22250105  0.30817350    -0.80300
C13         C  0.14999159  0.35897637  0.09781021     0.79700
N14         N  0.19041890  0.38149934  0.09629031    -0.78600
C15         C  0.20859112  0.35979692  0.09834086     0.82100
N16         N  0.18572323  0.31504580  0.10066556    -0.78600
C17         C  0.14511716  0.29212015  0.10158481     0.82200
N18         N  0.12750848  0.31435955  0.10019893    -0.80300
C19         C  0.15726855  0.36346704  0.31458899     0.79700
N20         N  0.19777354  0.38666256  0.31363084    -0.78600
C21         C  0.21675557  0.36612570  0.31837035     0.82100
N22         N  0.19489235  0.32184492  0.32305372    -0.78600
C23         C  0.15420629  0.29802224  0.32276535     0.82200
N24         N  0.13580362  0.31925067  0.31890803    -0.80300
C25         C  0.13586770  0.06739735  0.06055941     0.75900
Tb26       Tb  0.46528371  0.01840025  0.07952053     1.80700
O27         O  0.11778668  0.05824156  0.09817431    -0.52100
O28         O  0.06845488  0.46988250  0.11430962    -0.59600
C29         C  0.04782839  0.09655816  0.07141496     0.91700
O30         O  0.45573646  0.07439693  0.10906223    -0.59100
Tb31       Tb  0.05200252  0.00885124  0.05639272     1.78100
O32         O  0.39464571  0.46976026  0.04585856    -0.59600
O33         O  0.99364167  0.44640212  0.07942056    -0.78400
O34         O  0.05914261  0.07557174  0.04576869    -0.77700
O35         O  0.02867550  0.00201967  0.47707520    -0.63000
C36         C  0.46576057  0.42973897  0.06237889     0.91300
O37         O  0.48035537  0.00581008  0.15647465    -0.74900
C38         C  0.38220204  0.95954822  0.08384326     0.74700
C39         C  0.07529452  0.45205100  0.07801133     0.75700
O40         O  0.11219000  0.04899104  0.02109951    -0.60200
O41         O  0.07003608  0.46250849  0.03796854    -0.52100
O42         O  0.49998498  0.03923579  0.01049113    -0.78200
O43         O  0.04084333  0.02777614  0.13400857    -0.62200
C44         C  0.00778895  0.01059866  0.15217760     0.89500
C45         C  0.01156375  0.01702957  0.45552918     0.90700
C46         C  0.43980105  0.07426151  0.06898690     0.75100
O47         O  0.40843066  0.97039440  0.11902497    -0.51500
O48         O  0.43880136  0.54811560  0.03215467    -0.52700
O49         O  0.45451349  0.44995145  0.04000019    -0.65500
O50         O  0.01502397  0.07513013  0.08999887    -0.66700
C51         C  0.14478586  0.07561303  0.31045988     0.75900
Tb52       Tb  0.47229763  0.02477612  0.33399651     1.80700
O53         O  0.12729300  0.06037999  0.34725016    -0.52100
O54         O  0.06935728  0.46695002  0.34789596    -0.59600
C55         C  0.06254698  0.10493633  0.31739751     0.91700
O56         O  0.45954403  0.07682892  0.36885920    -0.59100
Tb57       Tb  0.06105921  0.01647096  0.30721901     1.78100
O58         O  0.40926057  0.48339585  0.28633137    -0.59600
O59         O  0.00510850  0.45532572  0.27553388    -0.78400
O60         O  0.07337482  0.08540393  0.34174648    -0.77700
O61         O  0.04213509  0.02399383  0.22944093    -0.63000
C62         C  0.47508257  0.43788051  0.31723773     0.91300
O63         O  0.50331469  0.04376538  0.41447532    -0.74900
C64         C  0.38868560  0.96601964  0.33384524     0.74700
C65         C  0.08520524  0.46163367  0.31180922     0.75700
O66         O  0.12054473  0.06370646  0.27249347    -0.60200
O67         O  0.08740207  0.48376412  0.27893104    -0.52100
O68         O  0.48181342  0.00591583  0.25445359    -0.78200
O69         O  0.03114141  0.00324623  0.38023513    -0.62200
C70         C  0.01473378  0.01983432  0.40328278     0.89500
C71         C  0.00891177  0.01088519  0.20495331     0.90700
C72         C  0.44890095  0.08291776  0.32878894     0.75100
O73         O  0.41339302  0.98620490  0.37240219    -0.51500
O74         O  0.45872327  0.57128605  0.29522548    -0.52700
O75         O  0.46488900  0.45959524  0.34374604    -0.65500
O76         O  0.03123063  0.08171441  0.28637588    -0.66700
C77         C  0.14775276  0.23053939  0.34729869    -0.26900
C78         C  0.12994326  0.24903021  0.32485003    -0.15000
C79         C  0.08927791  0.22002438  0.30343167     0.35700
C80         C  0.06820618  0.17363287  0.30246465    -0.26300
C81         C  0.08620722  0.15479338  0.32329373    -0.15600
C82         C  0.12610194  0.18384472  0.34732819     0.36800
N83         N  0.14497551  0.16630549  0.37123155    -0.89800
H84         H  0.17863785  0.25238117  0.36494732     0.17900
H85         H  0.03736190  0.15220048  0.28466443     0.17900
N86         N  0.06918736  0.23708868  0.28140769    -0.88800
H87         H  0.15329824  0.18125171  0.40811476     0.35200
H88         H  0.17127944  0.17589725  0.35561055     0.40300
H89         H  0.04405629  0.22813055  0.29949387     0.40000
H90         H  0.05867439  0.22104890  0.24501535     0.34900
C91         C  0.27962303  0.42119903  0.28507073    -0.26900
C92         C  0.26098206  0.39210020  0.31924986    -0.15000
C93         C  0.28485361  0.38908440  0.35470038     0.35700
C94         C  0.32687694  0.41467180  0.35462998    -0.26300
C95         C  0.34550355  0.44271453  0.31950009    -0.15600
C96         C  0.32147802  0.44637765  0.28468643     0.36800
N97         N  0.33266906  0.96256033  0.25892177    -0.89800
H98         H  0.26148028  0.42427532  0.25832221     0.17900
H99         H  0.34520791  0.41287274  0.38240539     0.17900
N100        N  0.26647442  0.36099204  0.39139413    -0.88800
H101        H  0.34618425  0.95060852  0.23727731     0.35200
H102        H  0.35431229  0.99650900  0.27349001     0.40300
H103        H  0.25369469  0.37406626  0.41297086     0.40000
H104        H  0.28826793  0.36264180  0.41476645     0.34900
C105        C  0.08667494  0.39928523  0.33670764    -0.26900
C106        C  0.10177596  0.43455416  0.30951014    -0.15000
C107        C  0.13462767  0.44575516  0.28329164     0.35700
C108        C  0.15167884  0.42155260  0.28463619    -0.26300
C109        C  0.13693314  0.38653103  0.31223798    -0.15600
C110        C  0.10402721  0.37528692  0.33866782     0.36800
N111        N  0.08930754  0.34079054  0.36885510    -0.89800
H112        H  0.06176498  0.39103555  0.35732535     0.17900
H113        H  0.17699219  0.43066708  0.26444554     0.17900
N114        N  0.15201762  0.48302497  0.25704658    -0.88800
H115        H  0.06484847  0.33651653  0.38545536     0.35200
H116        H  0.11231391  0.35196109  0.39718141     0.40300
H117        H  0.15110732  0.47118828  0.22048565     0.40000
H118        H  0.18229340  0.50627330  0.27168866     0.34900
C119        C  0.13073055  0.21933027  0.06426044    -0.26900
C120        C  0.11980871  0.24236690  0.09581710    -0.15000
C121        C  0.08447498  0.21729209  0.11866634     0.35700
C122        C  0.06182853  0.17007734  0.11049892    -0.26300
C123        C  0.07294960  0.14680234  0.07891928    -0.15600
C124        C  0.10780900  0.17245300  0.05498455     0.36800
N125        N  0.12088231  0.15250727  0.02039684    -0.89800
H126        H  0.15708171  0.23800019  0.04539494     0.16500
H127        H  0.03522380  0.15158016  0.12896947     0.17900
N128        N  0.07132403  0.23866510  0.15109500    -0.88800
H129        H  0.09762973  0.13146498  0.99171186     0.35200
H130        H  0.12868179  0.13428706  0.03812222     0.40300
H131        H  0.06341082  0.25582448  0.13130802     0.40000
H132        H  0.09525622  0.26187036  0.17828387     0.34900
C133        C  0.27629625  0.37654119  0.12435113    -0.26900
C134        C  0.25241113  0.38388272  0.09452128    -0.15000
C135        C  0.27058063  0.41352101  0.06042933     0.35700
C136        C  0.31200287  0.43572625  0.05726672    -0.26300
C137        C  0.33619752  0.42955665  0.08802885    -0.15600
C138        C  0.31803344  0.39934303  0.12158675     0.36800
N139        N  0.34032586  0.88638881  0.14105547    -0.89800
H140        H  0.26261459  0.35341343  0.15029703     0.17900
H141        H  0.32544098  0.45862793  0.03104787     0.17900
N142        N  0.24691343  0.42051071  0.02816303    -0.88800
H143        H  0.32795727  0.85253132  0.12809536     0.35200
H144        H  0.33589489  0.88916271  0.17785057     0.40300
H145        H  0.24961124  0.41142184  0.99208838     0.40000
H146        H  0.25908800  0.45485980  0.03375720     0.34900
C147        C  0.10368556  0.37885019  0.12547129    -0.26900
C148        C  0.12985287  0.38157110  0.09201524    -0.15000
C149        C  0.13538977  0.40440782  0.05209400     0.35700
C150        C  0.11605588  0.42589898  0.04764022    -0.26300
C151        C  0.09117727  0.42482189  0.08208450    -0.15600
C152        C  0.08440974  0.40049874  0.12093401     0.36800
N153        N  0.05760686  0.39712667  0.15524780    -0.89800
H154        H  0.09865479  0.36040054  0.15555826     0.17900
H155        H  0.12145671  0.94374838  0.00220620     0.17900
N156        N  0.16017755  0.40514868  0.01590281    -0.88800
H157        H  0.07370881  0.40979737  0.19034702     0.35200
H158        H  0.03466953  0.36299826  0.15408854     0.40300
H159        H  0.16119098  0.42353096  0.98896828     0.40000
H160        H  0.15079225  0.87437854  0.98449270     0.34900
C161        C  0.42234183  0.12455448  0.36744167    -0.26900
C162        C  0.43247074  0.10981570  0.32511403    -0.15000
C163        C  0.42429169  0.11855938  0.27935781     0.35700
C164        C  0.40639355  0.14171555  0.27679508    -0.26300
C165        C  0.39574267  0.15553681  0.31883833    -0.15600
C166        C  0.40378005  0.14699713  0.36462207     0.36800
N167        N  0.39353024  0.16090368  0.40860672    -0.89800
H168        H  0.42812161  0.11787526  0.40275368     0.17900
H169        H  0.40019415  0.14831562  0.24159720     0.17900
N170        N  0.43378497  0.10379590  0.23526326    -0.88800
H171        H  0.36238055  0.14557508  0.40449752     0.35200
H172        H  0.40821128  0.19579375  0.41308614     0.40300
H173        H  0.44020696  0.62059937  0.22147521     0.40000
H174        H  0.48266034  0.67006573  0.24876535     0.34900
C175        C  0.38868361  0.31641626  0.32063519    -0.26900
C176        C  0.40459064  0.29294250  0.30242849    -0.15000
C177        C  0.44351139  0.31722352  0.28747482     0.35700
C178        C  0.46570807  0.36433591  0.29155428    -0.26300
C179        C  0.45004287  0.38792034  0.31110197    -0.15600
C180        C  0.41095284  0.36324883  0.32562782     0.36800
N181        N  0.39342603  0.38531447  0.34575367    -0.89800
H182        H  0.35900438  0.29852846  0.33272565     0.17900
H183        H  0.49565404  0.38250079  0.28021675     0.17900
N184        N  0.46059998  0.29438981  0.26797599    -0.88800
H185        H  0.38666725  0.37730075  0.38074160     0.35200
H186        H  0.36633513  0.37221088  0.32376935     0.40300
H187        H  0.48770908  0.30739248  0.28988535     0.40000
H188        H  0.46734116  0.30180493  0.23280376     0.34900
C189        C  0.25535494  0.12344328  0.34242303    -0.26900
C190        C  0.27310571  0.15203319  0.30762512    -0.15000
C191        C  0.24839409  0.15613046  0.27442496     0.35700
C192        C  0.20670761  0.13081165  0.27596787    -0.26300
C193        C  0.18902892  0.10256416  0.31106313    -0.15600
C194        C  0.21363679  0.09890482  0.34484314     0.36800
N195        N  0.19624473  0.06973344  0.38085109    -0.89800
H196        H  0.27420670  0.12038460  0.36802981     0.17900
H197        H  0.18802201  0.13360043  0.24976233     0.17900
N198        N  0.26444372  0.18471336  0.23795919    -0.88800
H199        H  0.21865037  0.07183970  0.40349293     0.35200
H200        H  0.17787672  0.03655487  0.36224824     0.40300
H201        H  0.28075109  0.17615918  0.21711063     0.40000
H202        H  0.28378195  0.21818360  0.25539137     0.34900
C203        C  0.43607565  0.13825062  0.09897168    -0.26900
C204        C  0.42189169  0.09955417  0.06452408    -0.15000
C205        C  0.39477810  0.09023747  0.52160512     0.35700
C206        C  0.37658007  0.11338144  0.52071306    -0.26300
C207        C  0.38472808  0.14524385  0.06314364    -0.15600
C208        C  0.41808885  0.16159915  0.09830471     0.36800
N209        N  0.43308799  0.20138085  0.13360469    -0.89800
H210        H  0.46122023  0.15025712  0.12656953     0.17900
H211        H  0.35416372  0.10413417  0.49039835     0.17900
N212        N  0.38259035  0.05334448  0.48326495    -0.88800
H213        H  0.45789989  0.20902419  0.15679337     0.35200
H214        H  0.41041700  0.19425704  0.15563706     0.40300
H215        H  0.40701346  0.06320641  0.46348788     0.40000
H216        H  0.35918082  0.04711197  0.45849296     0.34900
C217        C  0.46022801  0.35980422  0.07179476    -0.26900
C218        C  0.44210305  0.37985612  0.05438462    -0.15000
C219        C  0.40149656  0.35193653  0.03274960     0.35700
C220        C  0.37954949  0.30509848  0.03081766    -0.26300
C221        C  0.39721449  0.28532534  0.05036073    -0.15600
C222        C  0.43833028  0.31318438  0.07022259     0.36800
N223        N  0.45772513  0.29480752  0.09095035    -0.89800
H224        H  0.49149609  0.38049516  0.08813515     0.17900
H225        H  0.34877553  0.28852723  0.51955014     0.17900
N226        N  0.38166738  0.37488077  0.51940279    -0.88800
H227        H  0.46809590  0.30969258  0.12773569     0.35200
H228        H  0.48278549  0.30366012  0.07275665     0.40300
H229        H  0.35691503  0.36118549  0.03306636     0.40000
H230        H  0.36935459  0.36075137  0.48281392     0.34900
C231        C  0.24755310  0.12386879  0.09871276    -0.26900
C232        C  0.26433408  0.14632036  0.05909681    -0.15000
C233        C  0.23887007  0.14409936  0.02097163     0.35700
C234        C  0.19716917  0.11841381  0.02242065    -0.26300
C235        C  0.18022089  0.09576687  0.06193565    -0.15600
C236        C  0.20569660  0.09876236  0.10074904     0.36800
N237        N  0.18899373  0.07530016  0.14124591    -0.89800
H238        H  0.26719481  0.12564448  0.12793236     0.17900
H239        H  0.17785890  0.11616474  0.99237453     0.17900
N240        N  0.25658580  0.16951463  0.47266299    -0.88800
H241        H  0.21191958  0.08177681  0.16704231     0.35200
H242        H  0.17174177  0.04073644  0.12773153     0.40300
H243        H  0.27039339  0.15551879  0.45545955     0.40000
H244        H  0.27828610  0.20404935  0.48361971     0.34900
C245        C  0.36827180  0.17274873  0.55504675     0.79700
N246        N  0.32761620  0.15026532  0.55339168    -0.78600
C247        C  0.31024554  0.17267041  0.55003800     0.82100
N248        N  0.33360788  0.21746217  0.54874956    -0.78600
C249        C  0.37426775  0.24027935  0.55056326     0.82200
N250        N  0.39140941  0.21761158  0.55374133    -0.80300
C251        C  0.37280875  0.17524424  0.80958925     0.79700
N252        N  0.33235905  0.15323426  0.81026089    -0.78600
C253        C  0.31440832  0.17459010  0.80358092     0.82100
N254        N  0.33736339  0.21829611  0.79744336    -0.78600
C255        C  0.37788291  0.24090624  0.79703929     0.82200
N256        N  0.39538443  0.21894482  0.80281790    -0.80300
C257        C  0.15395413  0.36664468  0.60416986     0.79700
N258        N  0.19436068  0.38904774  0.60210291    -0.78600
C259        C  0.21243735  0.36719792  0.60400538     0.82100
N260        N  0.18965508  0.32261755  0.60651780    -0.78600
C261        C  0.14928711  0.29997171  0.60811014     0.82200
N262        N  0.13153290  0.32206465  0.60687357    -0.80300
C263        C  0.15483609  0.36425960  0.82600557     0.79700
N264        N  0.19514151  0.38705346  0.82382844    -0.78600
C265        C  0.21389448  0.36620464  0.82753706     0.82100
N266        N  0.19195213  0.32197077  0.83234777    -0.78600
C267        C  0.15145908  0.29865924  0.83356706     0.82200
N268        N  0.13334978  0.32022516  0.83071482    -0.80300
C269        C  0.13997302  0.08024092  0.56057100     0.75900
Tb270      Tb  0.46708976  0.02136438  0.57853663     1.80700
O271        O  0.12282358  0.07165490  0.59893641    -0.52100
O272        O  0.07005890  0.47544382  0.61670339    -0.59600
C273        C  0.05067866  0.10567367  0.57188518     0.91700
O274        O  0.45067747  0.07127075  0.60817926    -0.59100
Tb275      Tb  0.05663482  0.02043562  0.55880358     1.78100
O276        O  0.39664111  0.47447163  0.54611105    -0.59600
O277        O  0.99159022  0.44678568  0.57051363    -0.78400
O278        O  0.06104346  0.08465763  0.54462170    -0.77700
O279        O  0.02454863  0.99352272  0.97519529    -0.63000
C280        C  0.46697351  0.43363121  0.56204614     0.91300
O281        O  0.48184947  0.01048219  0.65659145    -0.74900
C282        C  0.38334212  0.96023909  0.57543581     0.74700
C283        C  0.07638105  0.45644174  0.58097780     0.75700
O284        O  0.11556510  0.06166345  0.52180237    -0.60200
O285        O  0.06970851  0.46472802  0.54017188    -0.52100
O286        O  0.50383642  0.04367112  0.51142553    -0.78200
O287        O  0.04276946  0.03602142  0.63681533    -0.62200
C288        C  0.00954604  0.02126964  0.65435821     0.89500
C289        C  0.00847290  0.01058923  0.95586906     0.90700
C290        C  0.44085647  0.07638803  0.56705085     0.75100
O291        O  0.40749715  0.97387134  0.61399570    -0.51500
O292        O  0.44105625  0.55297776  0.53408521    -0.52700
O293        O  0.45640520  0.45411130  0.53904436    -0.65500
O294        O  0.01778616  0.08438072  0.59019459    -0.66700
C295        C  0.14278209  0.07803015  0.81176531     0.75900
Tb296      Tb  0.46984840  0.02290966  0.83333639     1.80700
O297        O  0.12502811  0.06408000  0.84881053    -0.52100
O298        O  0.06808595  0.46804226  0.85028608    -0.59600
C299        C  0.05879211  0.10539329  0.82285112     0.91700
O300        O  0.45592823  0.07349534  0.86981011    -0.59100
Tb301      Tb  0.05888418  0.01787872  0.80750431     1.78100
O302        O  0.40458983  0.48044530  0.78644799    -0.59600
O303        O  0.00263150  0.45515604  0.77656857    -0.78400
O304        O  0.06976453  0.08511637  0.84548843    -0.77700
O305        O  0.04155810  0.02941580  0.73140893    -0.63000
C306        C  0.47172411  0.43467518  0.81156904     0.91300
O307        O  0.50119929  0.04179229  0.91376680    -0.74900
C308        C  0.38620891  0.96636123  0.83358093     0.74700
C309        C  0.08223338  0.46033779  0.81378976     0.75700
O310        O  0.11871199  0.06434844  0.77316190    -0.60200
O311        O  0.08340885  0.48041313  0.77915805    -0.52100
O312        O  0.48099528  0.00670766  0.75355247    -0.78200
O313        O  0.02884096  0.00057085  0.87989310    -0.62200
C314        C  0.01218485  0.01600359  0.90439382     0.89500
C315        C  0.00917313  0.01881559  0.70701397     0.90700
C316        C  0.44794320  0.08252135  0.83014833     0.75100
O317        O  0.41122477  0.98153927  0.87150256    -0.51500
O318        O  0.45784578  0.57043366  0.79583548    -0.52700
O319        O  0.46092186  0.45500510  0.83943520    -0.65500
O320        O  0.02715537  0.08308719  0.79236798    -0.66700
C321        C  0.14520858  0.23010190  0.85318719    -0.26900
C322        C  0.12688403  0.24961898  0.83479329    -0.15000
C323        C  0.08554732  0.22150342  0.81581434     0.35700
C324        C  0.06415635  0.17496559  0.81359313    -0.26300
C325        C  0.08267828  0.15519002  0.83032965    -0.15600
C326        C  0.12342411  0.18327116  0.85152273     0.36800
N327        N  0.14313000  0.16457481  0.87041355    -0.89800
H328        H  0.17671388  0.25119707  0.86860930     0.17900
H329        H  0.03271949  0.15415329  0.79789837     0.17900
N330        N  0.06513695  0.23959516  0.79726659    -0.88800
H331        H  0.15349346  0.17852518  0.90742512     0.35200
H332        H  0.16823494  0.17439000  0.85194050     0.40300
H333        H  0.04071058  0.23034745  0.81688531     0.40000
H334        H  0.05371479  0.22479985  0.76061045     0.34900
C335        C  0.27548930  0.42147398  0.79227958    -0.26900
C336        C  0.25778539  0.39150250  0.82591933    -0.15000
C337        C  0.28230551  0.38685819  0.85838599     0.35700
C338        C  0.32397932  0.41187149  0.85610976    -0.26300
C339        C  0.34164300  0.44091600  0.82168687    -0.15600
C340        C  0.31706740  0.44611434  0.78970992     0.36800
N341        N  0.33245134  0.97627791  0.77020511    -0.89800
H342        H  0.25685055  0.42569558  0.76773643     0.17900
H343        H  0.34286547  0.40893150  0.88175730     0.17900
N344        N  0.26499758  0.35765137  0.89434582    -0.88800
H345        H  0.34414642  0.96530002  0.74392412     0.35200
H346        H  0.35561736  0.00841903  0.78840653     0.40300
H347        H  0.25336170  0.37056596  0.91836482     0.40000
H348        H  0.28721712  0.35814158  0.91537417     0.34900
C349        C  0.08214805  0.39787896  0.84023593    -0.26900
C350        C  0.09851814  0.43329979  0.81321181    -0.15000
C351        C  0.13262033  0.44515822  0.78953982     0.35700
C352        C  0.15028166  0.42200176  0.79408426    -0.26300
C353        C  0.13437624  0.38685366  0.82163607    -0.15600
C354        C  0.09950953  0.37418708  0.84450882     0.36800
N355        N  0.08247191  0.33831577  0.87302792    -0.89800
H356        H  0.05616381  0.38923323  0.85877833     0.17900
H357        H  0.17673664  0.43178122  0.77602354     0.17900
N358        N  0.15050232  0.48196799  0.76258655    -0.88800
H359        H  0.05652218  0.33283285  0.88636915     0.35200
H360        H  0.10352220  0.34875307  0.90363482     0.40300
H361        H  0.15099102  0.46983151  0.72676658     0.40000
H362        H  0.18037123  0.50585967  0.77841779     0.34900
C363        C  0.13118218  0.22812686  0.56293578    -0.26900
C364        C  0.12429817  0.25057652  0.60111151    -0.15000
C365        C  0.09322894  0.22547907  0.62976744     0.35700
C366        C  0.06996761  0.17838283  0.61985615    -0.26300
C367        C  0.07668911  0.15559370  0.58132652    -0.15600
C368        C  0.10787114  0.18132210  0.55245383     0.36800
N369        N  0.11634995  0.16149475  0.51154296    -0.89800
H370        H  0.15453966  0.24725398  0.54017600     0.16500
H371        H  0.04649867  0.15957015  0.64256981     0.17900
N372        N  0.08529261  0.24681148  0.66971018    -0.88800
H373        H  0.09018854  0.14058319  0.48655379     0.35200
H374        H  0.12627440  0.14298731  0.52395078     0.40300
H375        H  0.07664892  0.26605329  0.65607744     0.40000
H376        H  0.11190286  0.26826131  0.69390288     0.34900
C377        C  0.27993078  0.38337984  0.62867400    -0.26900
C378        C  0.25579912  0.39032879  0.59877604    -0.15000
C379        C  0.27288857  0.41726331  0.56221588     0.35700
C380        C  0.31388662  0.43820071  0.55738760    -0.26300
C381        C  0.33858043  0.43310836  0.58865417    -0.15600
C382        C  0.32118328  0.40463662  0.62397329     0.36800
N383        N  0.33734129  0.88183081  0.62450343    -0.89800
H384        H  0.26679940  0.36166557  0.65602981     0.17900
H385        H  0.32658868  0.45918683  0.52939747     0.17900
N386        N  0.24844682  0.42244122  0.52896762    -0.88800
H387        H  0.32504607  0.84839892  0.60943805     0.35200
H388        H  0.33121896  0.88255098  0.66081460     0.40300
H389        H  0.24980776  0.41074341  0.49337740     0.40000
H390        H  0.26096507  0.45680942  0.53173913     0.34900
C391        C  0.10598581  0.38477066  0.62996571    -0.26900
C392        C  0.13359064  0.38902799  0.59792291    -0.15000
C393        C  0.14008956  0.41288648  0.55867295     0.35700
C394        C  0.11991551  0.43335044  0.55324598    -0.26300
C395        C  0.09348050  0.43056068  0.58623198    -0.15600
C396        C  0.08616096  0.40575632  0.62468010     0.36800
N397        N  0.05823331  0.40123291  0.65779767    -0.89800
H398        H  0.10026886  0.36566790  0.65958391     0.17900
H399        H  0.12439601  0.95452389  0.49730077     0.17900
N400        N  0.16666949  0.41566235  0.52406481    -0.88800
H401        H  0.07352517  0.41364125  0.69334451     0.35200
H402        H  0.03554065  0.36691529  0.65582884     0.40300
H403        H  0.16833531  0.43473648  0.49758295     0.40000
H404        H  0.15035252  0.88255624  0.47359518     0.34900
C405        C  0.40704865  0.10872803  0.86160814    -0.26900
C406        C  0.43167794  0.10949899  0.82690814    -0.15000
C407        C  0.43716547  0.13242343  0.78706155     0.35700
C408        C  0.41808768  0.15419230  0.78260415    -0.26300
C409        C  0.39245090  0.15220353  0.81637769    -0.15600
C410        C  0.38694099  0.12922130  0.85637951     0.36800
N411        N  0.36174314  0.12676862  0.89261236    -0.89800
H412        H  0.40218669  0.09068119  0.89201411     0.17900
H413        H  0.42262361  0.17189743  0.75194375     0.17900
N414        N  0.46204295  0.13365460  0.75100325    -0.88800
H415        H  0.33205971  0.10922633  0.87581248     0.35200
H416        H  0.37155759  0.15952167  0.90735462     0.40300
H417        H  0.45021948  0.63076059  0.72716459     0.40000
H418        H  0.48996935  0.67747637  0.76249115     0.34900
C419        C  0.38348538  0.31236055  0.80020146    -0.26900
C420        C  0.40254173  0.29009031  0.79545644    -0.15000
C421        C  0.44462728  0.31590275  0.79271724     0.35700
C422        C  0.46648700  0.36293225  0.79625165    -0.26300
C423        C  0.44740299  0.38496280  0.80355622    -0.15600
C424        C  0.40543177  0.35916247  0.80487421     0.36800
N425        N  0.38475367  0.38026998  0.81128094    -0.89800
H426        H  0.35130437  0.29370157  0.80205480     0.17900
H427        H  0.49878547  0.38237020  0.79495896     0.17900
N428        N  0.46555688  0.29496777  0.78704545    -0.88800
H429        H  0.37028662  0.37128541  0.84266059     0.35200
H430        H  0.36260968  0.36730344  0.78126227     0.40300
H431        H  0.48803638  0.30885848  0.81687122     0.40000
H432        H  0.47968202  0.30299388  0.75529452     0.34900
C433        C  0.25333106  0.12488711  0.84269884    -0.26900
C434        C  0.27065961  0.15136755  0.80600198    -0.15000
C435        C  0.24579911  0.15484934  0.77236226     0.35700
C436        C  0.20446574  0.13156350  0.77581315    -0.26300
C437        C  0.18709115  0.10503099  0.81241826    -0.15600
C438        C  0.21180423  0.10167470  0.84637662     0.36800
N439        N  0.19461216  0.07374656  0.88349436    -0.89800
H440        H  0.27229638  0.12220349  0.86855087     0.17900
H441        H  0.18566849  0.13387516  0.74925081     0.17900
N442        N  0.26119590  0.18007718  0.73302286    -0.88800
H443        H  0.21700992  0.07550023  0.90573543     0.35200
H444        H  0.17530718  0.04029901  0.86586075     0.40300
H445        H  0.27588549  0.16873812  0.71279289     0.40000
H446        H  0.28188735  0.21411788  0.74758588     0.34900
C447        C  0.43424652  0.13767664  0.59920938    -0.26900
C448        C  0.42378185  0.10239402  0.56155148    -0.15000
C449        C  0.38873334  0.08361717  0.02883194     0.35700
C450        C  0.37005067  0.10625587  0.02922211    -0.26300
C451        C  0.38731131  0.14871573  0.55823543    -0.15600
C452        C  0.41630558  0.16103389  0.59795145     0.36800
N453        N  0.42664326  0.19641601  0.63734315    -0.89800
H454        H  0.45619947  0.14672112  0.63001490     0.17900
H455        H  0.34452980  0.09412060  0.00214388     0.17900
N456        N  0.37338601  0.04394428  0.99318748    -0.88800
H457        H  0.44853380  0.20134425  0.66369309     0.35200
H458        H  0.40083290  0.18574828  0.65464019     0.40300
H459        H  0.39497076  0.05196823  0.96912661     0.40000
H460        H  0.34731803  0.03519632  0.97195888     0.34900
C461        C  0.46248168  0.36405406  0.56867265    -0.26900
C462        C  0.44343901  0.38388346  0.55374522    -0.15000
C463        C  0.40218774  0.35602060  0.53513765     0.35700
C464        C  0.38059794  0.30931655  0.53349629    -0.26300
C465        C  0.39927196  0.28956444  0.55032569    -0.15600
C466        C  0.44098188  0.31748252  0.56776351     0.36800
N467        N  0.46128430  0.29903375  0.58611144    -0.89800
H468        H  0.49426222  0.38519636  0.58270780     0.17900
H469        H  0.34818131  0.28423105  0.01487305     0.17900
N470        N  0.38186431  0.37087590  0.01430661    -0.88800
H471        H  0.45001689  0.28777575  0.61864713     0.35200
H472        H  0.49222729  0.32397789  0.59534080     0.40300
H473        H  0.35784757  0.36537209  0.54023836     0.40000
H474        H  0.37130252  0.35705159  0.97730414     0.34900
C475        C  0.25049624  0.12864626  0.59265667    -0.26900
C476        C  0.26676738  0.14958395  0.55209965    -0.15000
C477        C  0.24155142  0.14925809  0.51528117     0.35700
C478        C  0.20046168  0.12741862  0.51942738    -0.26300
C479        C  0.18404026  0.10651371  0.56013525    -0.15600
C480        C  0.20932027  0.10712528  0.59721685     0.36800
N481        N  0.19299297  0.08477329  0.63849860    -0.89800
H482        H  0.27006758  0.12917978  0.62089997     0.17900
H483        H  0.18117101  0.12650658  0.49043270     0.17900
N484        N  0.25436975  0.16635345  0.97963626    -0.88800
H485        H  0.21581163  0.08918726  0.66273085     0.35200
H486        H  0.17348481  0.05017905  0.62537519     0.40300
H487        H  0.27082893  0.15547733  0.96326687     0.40000
H488        H  0.27377980  0.20104542  0.99195650     0.34900
C489        C  0.36697462  0.67124532  0.05841636     0.79700
N490        N  0.32708662  0.65024036  0.06270890    -0.78600
C491        C  0.30999874  0.67313690  0.06121941     0.82100
N492        N  0.33296708  0.71706677  0.05542339    -0.78600
C493        C  0.37295176  0.73848186  0.05138189     0.82200
N494        N  0.38970769  0.71525490  0.05300273    -0.80300
C495        C  0.37809539  0.68114963  0.32662321     0.79700
N496        N  0.33756265  0.65838215  0.32792657    -0.78600
C497        C  0.31889756  0.67914810  0.32155256     0.82100
N498        N  0.34131856  0.72286464  0.31527489    -0.78600
C499        C  0.38176171  0.74581272  0.31410108     0.82200
N500        N  0.39990562  0.72462112  0.31946101    -0.80300
C501        C  0.14992191  0.85822447  0.08336332     0.79700
N502        N  0.19055325  0.88191474  0.08374182    -0.78600
C503        C  0.20989974  0.86186709  0.08918696     0.82100
N504        N  0.18800431  0.81758542  0.09366412    -0.78600
C505        C  0.14729156  0.79370378  0.09346091     0.82200
N506        N  0.12844436  0.81420388  0.08823456    -0.80300
C507        C  0.15897540  0.86537864  0.34244584     0.79700
N508        N  0.19903180  0.88666187  0.33891102    -0.78600
C509        C  0.21714790  0.86528964  0.34477260     0.82100
N510        N  0.19472023  0.82190903  0.35277424    -0.78600
C511        C  0.15444300  0.80000433  0.35526642     0.82200
N512        N  0.13711287  0.82221302  0.35047532    -0.80300
C513        C  0.13927697  0.57134914  0.07470918     0.75900
Tb514      Tb  0.46328957  0.51606578  0.07814730     1.80700
O515        O  0.12125295  0.56587938  0.11227755    -0.52100
O516        O  0.06603009  0.96579718  0.09802913    -0.59600
C517        C  0.05145976  0.59962486  0.07816905     0.91700
O518        O  0.45231147  0.57100939  0.10793782    -0.59100
Tb519      Tb  0.05522314  0.51276079  0.07088043     1.78100
O520        O  0.39727258  0.97542503  0.04621306    -0.59600
O521        O  0.99012159  0.94259289  0.06363521    -0.78400
O522        O  0.06120612  0.57693361  0.05288765    -0.77700
O523        O  0.02879024  0.49990770  0.48880446    -0.63000
C524        C  0.46698189  0.93196474  0.06162769     0.91300
O525        O  0.48171827  0.50585442  0.15476990    -0.74900
C526        C  0.38019400  0.45625297  0.08467384     0.74700
C527        C  0.07328540  0.94883949  0.06135785     0.75700
O528        O  0.11559342  0.54863737  0.03581937    -0.60200
O529        O  0.06792115  0.95982294  0.02175055    -0.52100
O530        O  0.49645564  0.53374840  0.00734825    -0.78200
O531        O  0.04537952  0.53541840  0.14804007    -0.62200
C532        C  0.01244180  0.51924451  0.16639378     0.89500
C533        C  0.01058822  0.51392880  0.46782773     0.90700
C534        C  0.43838520  0.57277875  0.06746774     0.75100
O535        O  0.40716082  0.47040787  0.12022634    -0.51500
O536        O  0.43872969  0.04834419  0.03387375    -0.52700
O537        O  0.45660435  0.95293016  0.03927909    -0.65500
O538        O  0.01958891  0.57994797  0.09883750    -0.66700
C539        C  0.14638583  0.58123616  0.32764854     0.75900
Tb540      Tb  0.47421668  0.52684985  0.33073215     1.80700
O541        O  0.12791627  0.55978828  0.36114691    -0.52100
O542        O  0.06766974  0.96596884  0.34531142    -0.59600
C543        C  0.06050207  0.60709426  0.34272975     0.91700
O544        O  0.46344423  0.57863521  0.37213390    -0.59100
Tb545      Tb  0.06226481  0.52106618  0.31992121     1.78100
O546        O  0.40566147  0.97300167  0.29538005    -0.59600
O547        O  0.00240907  0.95021731  0.26646506    -0.78400
O548        O  0.07133308  0.58566165  0.36312558    -0.77700
O549        O  0.04660102  0.53650709  0.24534669    -0.63000
C550        C  0.47648915  0.93873892  0.32112133     0.91300
O551        O  0.50349544  0.54305116  0.41181782    -0.74900
C552        C  0.38996309  0.46987578  0.32243628     0.74700
C553        C  0.08387418  0.95747599  0.31198250     0.75700
O554        O  0.12286176  0.57546503  0.29178621    -0.60200
O555        O  0.08605024  0.97569799  0.27520660    -0.52100
O556        O  0.48395761  0.50708055  0.25189049    -0.78200
O557        O  0.03147344  0.50306268  0.39222501    -0.62200
C558        C  0.01295448  0.51670404  0.41570946     0.89500
C559        C  0.01311405  0.52009089  0.21936140     0.90700
C560        C  0.45529652  0.58961417  0.33416500     0.75100
O561        O  0.41258952  0.48275484  0.36211704    -0.51500
O562        O  0.45195691  0.06194088  0.29192432    -0.52700
O563        O  0.46797452  0.96096851  0.34963445    -0.65500
O564        O  0.03021241  0.58632914  0.31012553    -0.66700
C565        C  0.14723070  0.73114270  0.37567465    -0.26900
C566        C  0.12903954  0.75131174  0.35876662    -0.15000
C567        C  0.08717534  0.72382820  0.34217090     0.35700
C568        C  0.06520337  0.67728390  0.34059680    -0.26300
C569        C  0.08392003  0.65680118  0.35416340    -0.15600
C570        C  0.12508880  0.68424892  0.37358712     0.36800
N571        N  0.14508085  0.66476881  0.38914473    -0.89800
H572        H  0.17912452  0.75165544  0.38924512     0.17900
H573        H  0.03344040  0.65687438  0.32642285     0.17900
N574        N  0.06696057  0.74234226  0.32420759    -0.88800
H575        H  0.15730825  0.67860808  0.42580692     0.35200
H576        H  0.16897028  0.67420695  0.36848822     0.40300
H577        H  0.04317854  0.73401866  0.34472354     0.40000
H578        H  0.05468076  0.72711761  0.28781566     0.34900
C579        C  0.27684889  0.91331151  0.30261175    -0.26900
C580        C  0.26075565  0.88890717  0.34113864    -0.15000
C581        C  0.28665020  0.88863950  0.37636216     0.35700
C582        C  0.32834451  0.91400733  0.37304569    -0.26300
C583        C  0.34443668  0.93815540  0.33426564    -0.15600
C584        C  0.31816073  0.93745536  0.29849211     0.36800
N585        N  0.33871979  0.47685193  0.25012138    -0.89800
H586        H  0.25710272  0.91362851  0.27544111     0.17900
H587        H  0.34839867  0.91489191  0.40087020     0.17900
N588        N  0.27067345  0.86329060  0.41572652    -0.88800
H589        H  0.35351316  0.46763080  0.22714209     0.35200
H590        H  0.35973932  0.50939603  0.26929921     0.40300
H591        H  0.25829355  0.87694743  0.43703062     0.40000
H592        H  0.29380560  0.86694557  0.43863674     0.34900
C593        C  0.08578735  0.89923267  0.34782408    -0.26900
C594        C  0.10134668  0.93181629  0.31701783    -0.15000
C595        C  0.13554388  0.94204267  0.29426027     0.35700
C596        C  0.15404596  0.92038453  0.30353875    -0.26300
C597        C  0.13871641  0.88790452  0.33455870    -0.15600
C598        C  0.10379160  0.87682423  0.35633411     0.36800
N599        N  0.08686709  0.84355199  0.38787543    -0.89800
H600        H  0.05956728  0.89117931  0.36553821     0.17900
H601        H  0.18042946  0.92887854  0.28596863     0.17900
N602        N  0.15244209  0.97546000  0.26286803    -0.88800
H603        H  0.05704162  0.81821012  0.37298254     0.35200
H604        H  0.08620883  0.85862379  0.42187970     0.40300
H605        H  0.15252278  0.96028786  0.22856399     0.40000
H606        H  0.18241050  0.00061448  0.27737193     0.34900
C607        C  0.13360162  0.72009755  0.06213283    -0.26900
C608        C  0.12327912  0.74460846  0.09216544    -0.15000
C609        C  0.08956403  0.72147742  0.11806453     0.35700
C610        C  0.06719729  0.67452781  0.11343371    -0.26300
C611        C  0.07707940  0.64959045  0.08265657    -0.15600
C612        C  0.11096528  0.67329843  0.05657145     0.36800
N613        N  0.12329516  0.65139075  0.02360902    -0.89800
H614        H  0.15903826  0.73743146  0.04150722     0.16500
H615        H  0.04163953  0.65751639  0.13389101     0.17900
N616        N  0.07780007  0.74464774  0.15010710    -0.88800
H617        H  0.09957308  0.62906228  0.99583874     0.35200
H618        H  0.13115038  0.63416586  0.04320298     0.40300
H619        H  0.06883403  0.76046856  0.12952049     0.40000
H620        H  0.10267652  0.76907752  0.17559388     0.34900
C621        C  0.27641768  0.87569025  0.11464150    -0.26900
C622        C  0.25419932  0.88745334  0.08847368    -0.15000
C623        C  0.27467414  0.92308661  0.06132814     0.35700
C624        C  0.31625771  0.94550426  0.06023054    -0.26300
C625        C  0.33838924  0.93391926  0.08643520    -0.15600
C626        C  0.31838924  0.89902277  0.11428378     0.36800
N627        N  0.34151983  0.39064600  0.15173297    -0.89800
H628        H  0.26124877  0.84852917  0.13581644     0.17900
H629        H  0.33141882  0.97258026  0.03901748     0.17900
N630        N  0.25339000  0.93614180  0.03386989    -0.88800
H631        H  0.32929591  0.35631161  0.14354361     0.35200
H632        H  0.33842612  0.39747215  0.18831239     0.40300
H633        H  0.25781709  0.93283720  0.99709770     0.40000
H634        H  0.26609169  0.97013607  0.04646658     0.34900
C635        C  0.10138994  0.87525006  0.10789014    -0.26900
C636        C  0.12888352  0.87952695  0.07584111    -0.15000
C637        C  0.13564320  0.90362737  0.03677923     0.35700
C638        C  0.11561097  0.92433757  0.03154112    -0.26300
C639        C  0.08946532  0.92181889  0.06492710    -0.15600
C640        C  0.08202712  0.89669131  0.10315177     0.36800
N641        N  0.05489973  0.89285791  0.13718537    -0.89800
H642        H  0.09575674  0.85619184  0.13753916     0.17900
H643        H  0.12114762  0.44441159  0.01761330     0.17900
N644        N  0.16273431  0.90690960  0.00267144    -0.88800
H645        H  0.07086541  0.90550415  0.17239026     0.35200
H646        H  0.03212847  0.85865892  0.13583896     0.40300
H647        H  0.16413761  0.92558306  0.97590723     0.40000
H648        H  0.14636198  0.37203679  0.99826526     0.34900
C649        C  0.42042488  0.62069138  0.37411758    -0.26900
C650        C  0.43983987  0.61773917  0.33446580    -0.15000
C651        C  0.44022581  0.63758504  0.29348405     0.35700
C652        C  0.42000833  0.65832338  0.29209151    -0.26300
C653        C  0.39866696  0.65887280  0.33043682    -0.15600
C654        C  0.39946731  0.64057190  0.37228546     0.36800
N655        N  0.37990869  0.64238494  0.41356629    -0.89800
H656        H  0.42041708  0.60615492  0.40601865     0.17900
H657        H  0.42034259  0.67335452  0.26037478     0.17900
N658        N  0.46106299  0.63679757  0.25317921    -0.88800
H659        H  0.34901212  0.62486987  0.40215278     0.35200
H660        H  0.39146736  0.67605822  0.42622656     0.40300
H661        H  0.40710607  0.08257873  0.21109853     0.40000
H662        H  0.45340748  0.13202396  0.21925534     0.34900
C663        C  0.39091420  0.81882924  0.33035676    -0.26900
C664        C  0.40598881  0.79455173  0.31209566    -0.15000
C665        C  0.44427250  0.81773961  0.29523945     0.35700
C666        C  0.46654982  0.86467018  0.29717596    -0.26300
C667        C  0.45158467  0.88900865  0.31659945    -0.15600
C668        C  0.41328881  0.86542309  0.33332626     0.36800
N669        N  0.39666679  0.88841895  0.35370496    -0.89800
H670        H  0.36185555  0.80182082  0.34406595     0.17900
H671        H  0.49600004  0.88212545  0.28446177     0.17900
N672        N  0.46063458  0.79398135  0.27610442    -0.88800
H673        H  0.39149995  0.88208595  0.38949577     0.35200
H674        H  0.36883453  0.87461969  0.33316579     0.40300
H675        H  0.48822521  0.80749800  0.29713696     0.40000
H676        H  0.46631229  0.79988042  0.24028051     0.34900
C677        C  0.25664038  0.62526220  0.35675469    -0.26900
C678        C  0.27479302  0.65502926  0.32309460    -0.15000
C679        C  0.25031548  0.66077746  0.29145462     0.35700
C680        C  0.20890689  0.63725686  0.29457810    -0.26300
C681        C  0.19080745  0.60780334  0.32851185    -0.15600
C682        C  0.21494511  0.60144112  0.35977033     0.36800
N683        N  0.19705452  0.56994509  0.39345724    -0.89800
H684        H  0.27509407  0.62037164  0.38070318     0.17900
H685        H  0.19062465  0.64168928  0.26968801     0.17900
N686        N  0.26607114  0.68853899  0.25421521    -0.88800
H687        H  0.21913256  0.57024114  0.41454699     0.35200
H688        H  0.17840952  0.53763664  0.37272403     0.40300
H689        H  0.28091086  0.67838584  0.23242535     0.40000
H690        H  0.28650582  0.72207683  0.27072116     0.34900
C691        C  0.43511488  0.63723399  0.09804151    -0.26900
C692        C  0.42144420  0.59920324  0.06266844    -0.15000
C693        C  0.39115124  0.58799338  0.52950242     0.35700
C694        C  0.37332407  0.61141220  0.52863080    -0.26300
C695        C  0.38583465  0.64678154  0.06057694    -0.15600
C696        C  0.41801648  0.66156664  0.09693848     0.36800
N697        N  0.43274166  0.70079956  0.13300798    -0.89800
H698        H  0.45918630  0.64796381  0.12672488     0.17900
H699        H  0.34900784  0.60013945  0.50004509     0.17900
N700        N  0.37610715  0.54881096  0.49355014    -0.88800
H701        H  0.45665336  0.70733457  0.15704554     0.35200
H702        H  0.40945777  0.69364542  0.15399252     0.40300
H703        H  0.37889398  0.55825525  0.45894669     0.40000
H704        H  0.34533659  0.52591178  0.49574985     0.34900
C705        C  0.46200908  0.86158045  0.06545325    -0.26900
C706        C  0.44307748  0.88203641  0.05241339    -0.15000
C707        C  0.40156811  0.85447539  0.03461012     0.35700
C708        C  0.37959455  0.80757833  0.03270621    -0.26300
C709        C  0.39820683  0.78736737  0.04825931    -0.15600
C710        C  0.44020224  0.81490896  0.06364749     0.36800
N711        N  0.46079431  0.79619630  0.07966557    -0.89800
H712        H  0.49397632  0.88207239  0.07859987     0.17900
H713        H  0.35265326  0.78884888  0.51487333     0.17900
N714        N  0.38759620  0.87531872  0.51133029    -0.88800
H715        H  0.47390240  0.81120003  0.11588781     0.35200
H716        H  0.48399683  0.80467651  0.05805866     0.40300
H717        H  0.35769664  0.86434809  0.04179220     0.40000
H718        H  0.38010359  0.86101226  0.47428767     0.34900
C719        C  0.25199584  0.62990979  0.10789720    -0.26900
C720        C  0.26683006  0.65050228  0.06655716    -0.15000
C721        C  0.23986600  0.64756398  0.03001107     0.35700
C722        C  0.19862315  0.62232260  0.03419034    -0.26300
C723        C  0.18349492  0.60089991  0.07493093    -0.15600
C724        C  0.21049673  0.60539846  0.11275160     0.36800
N725        N  0.19564845  0.58382236  0.15486215    -0.89800
H726        H  0.27281604  0.63253837  0.13612316     0.17900
H727        H  0.17812908  0.61899921  0.00493121     0.17900
N728        N  0.25300157  0.66314275  0.47862007    -0.88800
H729        H  0.21952622  0.59092689  0.17944333     0.35200
H730        H  0.17779228  0.54899511  0.14288627     0.40300
H731        H  0.26897547  0.65107978  0.46357640     0.40000
H732        H  0.27285741  0.69816172  0.48803274     0.34900
C733        C  0.36773164  0.67339682  0.56098829     0.79700
N734        N  0.32711555  0.65105315  0.55988416    -0.78600
C735        C  0.30968628  0.67348773  0.55736870     0.82100
N736        N  0.33303151  0.71836148  0.55593854    -0.78600
C737        C  0.37374627  0.74104411  0.55737197     0.82200
N738        N  0.39088976  0.71832715  0.56005045    -0.80300
C739        C  0.37633079  0.67964733  0.82539439     0.79700
N740        N  0.33591272  0.65740815  0.82652184    -0.78600
C741        C  0.31761931  0.67845925  0.82009789     0.82100
N742        N  0.34023789  0.72197261  0.81320619    -0.78600
C743        C  0.38066290  0.74461677  0.81192321     0.82200
N744        N  0.39846216  0.72308542  0.81794418    -0.80300
C745        C  0.15242110  0.86489769  0.57109858     0.79700
N746        N  0.19264168  0.88639420  0.56870998    -0.78600
C747        C  0.21018562  0.86404793  0.57123672     0.82100
N748        N  0.18687388  0.81972707  0.57551696    -0.78600
C749        C  0.14658626  0.79786426  0.57787757     0.82200
N750        N  0.12954537  0.82070220  0.57585582    -0.80300
C751        C  0.15595454  0.86642388  0.84227384     0.79700
N752        N  0.19640334  0.88898650  0.84107292    -0.78600
C753        C  0.21514595  0.86833785  0.84710275     0.82100
N754        N  0.19293919  0.82442582  0.85315201    -0.78600
C755        C  0.15236852  0.80130195  0.85371086     0.82200
N756        N  0.13432582  0.82270769  0.84840551    -0.80300
C757        C  0.13853235  0.57312810  0.57020179     0.75900
Tb758      Tb  0.46528319  0.51992238  0.57820579     1.80700
O759        O  0.12175986  0.56743235  0.60885331    -0.52100
O760        O  0.07824119  0.98300588  0.59916089    -0.59600
C761        C  0.05258576  0.60462041  0.57656524     0.91700
O762        O  0.45393815  0.57383249  0.61042361    -0.59100
Tb763      Tb  0.05465752  0.51534865  0.57063821     1.78100
O764        O  0.40086113  0.97464856  0.53846896    -0.59600
O765        O  0.99618848  0.95618800  0.57208751    -0.78400
O766        O  0.06332207  0.58155016  0.55424983    -0.77700
O767        O  0.02853415  0.49787477  0.98860550    -0.63000
C768        C  0.46880304  0.93488350  0.56759770     0.91300
O769        O  0.48077883  0.50704885  0.65413006    -0.74900
C770        C  0.38241676  0.45974900  0.58463739     0.74700
C771        C  0.07986431  0.96170286  0.56131248     0.75700
O772        O  0.11358100  0.55125013  0.53205258    -0.60200
O773        O  0.06824808  0.96796309  0.52211390    -0.52100
O774        O  0.49771187  0.53634019  0.50707162    -0.78200
O775        O  0.04326255  0.53643781  0.64750550    -0.62200
C776        C  0.01011944  0.51932634  0.66552123     0.89500
C777        C  0.01000405  0.51183685  0.96792284     0.90700
C778        C  0.44019017  0.57645456  0.57036738     0.75100
O779        O  0.40949339  0.47283739  0.61965183    -0.51500
O780        O  0.44573586  0.05571100  0.53163255    -0.52700
O781        O  0.45885121  0.95487135  0.54266888    -0.65500
O782        O  0.02119031  0.58570725  0.59817424    -0.66700
C783        C  0.14515715  0.57901228  0.82558702     0.75900
Tb784      Tb  0.47000131  0.52290448  0.83008266     1.80700
O785        O  0.12685175  0.55812630  0.85945215    -0.52100
O786        O  0.06372459  0.96531635  0.84327761    -0.59600
C787        C  0.06107213  0.60803922  0.83918621     0.91700
O788        O  0.45581739  0.57134169  0.87185641    -0.59100
Tb789      Tb  0.06090697  0.52072088  0.81941961     1.78100
O790        O  0.40274191  0.97685116  0.79503180    -0.59600
O791        O  0.99992932  0.95261540  0.76477076    -0.78400
O792        O  0.07181358  0.58700306  0.86063655    -0.77700
O793        O  0.04413069  0.53320608  0.74349720    -0.63000
C794        C  0.47362972  0.93633270  0.81479677     0.91300
O795        O  0.49790307  0.53649143  0.91106704    -0.74900
C796        C  0.38589421  0.46758417  0.82316656     0.74700
C797        C  0.08118257  0.95839169  0.81048258     0.75700
O798        O  0.12152349  0.57338206  0.78995407    -0.60200
O799        O  0.08503085  0.97856799  0.77495125    -0.52100
O800        O  0.48079978  0.50582391  0.75076684    -0.78200
O801        O  0.03025928  0.50185085  0.89147288    -0.62200
C802        C  0.01293527  0.51642913  0.91598024     0.89500
C803        C  0.01085917  0.51932585  0.71857509     0.90700
C804        C  0.45091326  0.58537062  0.83448790     0.75100
O805        O  0.40894085  0.48016809  0.86237200    -0.51500
O806        O  0.45285977  0.06380560  0.79283059    -0.52700
O807        O  0.46346460  0.95678571  0.84351372    -0.65500
O808        O  0.03066195  0.58661997  0.80683362    -0.66700
C809        C  0.14658635  0.73266959  0.87222544    -0.26900
C810        C  0.12770130  0.75231139  0.85582955    -0.15000
C811        C  0.08590896  0.72416810  0.83890229     0.35700
C812        C  0.06484275  0.67755819  0.83589047    -0.26300
C813        C  0.08414248  0.65774024  0.84964777    -0.15600
C814        C  0.12514191  0.68577824  0.86966977     0.36800
N815        N  0.14552347  0.66694360  0.88597353    -0.89800
H816        H  0.17839285  0.75366125  0.88627731     0.17900
H817        H  0.03314333  0.65666960  0.82138568     0.17900
N818        N  0.06469862  0.74221399  0.82290786    -0.88800
H819        H  0.15688918  0.68048481  0.92289068     0.35200
H820        H  0.16998618  0.67710261  0.86614181     0.40300
H821        H  0.04096685  0.73260234  0.84394074     0.40000
H822        H  0.05227170  0.72777728  0.78640393     0.34900
C823        C  0.27602238  0.92283528  0.81036738    -0.26900
C824        C  0.25895784  0.89278786  0.84400137    -0.15000
C825        C  0.28385201  0.88637338  0.87358010     0.35700
C826        C  0.32532241  0.91055798  0.86912732    -0.26300
C827        C  0.34217422  0.94002481  0.83493073    -0.15600
C828        C  0.31704766  0.94597735  0.80508544     0.36800
N829        N  0.33355216  0.47760191  0.75611222    -0.89800
H830        H  0.25718943  0.92793751  0.78740907     0.17900
H831        H  0.34461891  0.90631297  0.89238959     0.17900
N832        N  0.26716897  0.85601373  0.90853761    -0.88800
H833        H  0.34743069  0.46855678  0.73124673     0.35200
H834        H  0.35529957  0.50965479  0.77582716     0.40300
H835        H  0.25707397  0.86901455  0.93494082     0.40000
H836        H  0.28948118  0.85488721  0.92695185     0.34900
C837        C  0.08080232  0.89765773  0.84326786    -0.26900
C838        C  0.09819722  0.93228694  0.81504567    -0.15000
C839        C  0.13388071  0.94436062  0.79506968     0.35700
C840        C  0.15214875  0.92259859  0.80473970    -0.26300
C841        C  0.13527844  0.88835869  0.83359490    -0.15600
C842        C  0.09876832  0.87528069  0.85258768     0.36800
N843        N  0.08045745  0.84012094  0.88201495    -0.89800
H844        H  0.05336869  0.88844504  0.85861762     0.17900
H845        H  0.17973948  0.93259769  0.78934197     0.17900
N846        N  0.15255995  0.97985073  0.76633954    -0.88800
H847        H  0.05339915  0.83413806  0.89212636     0.35200
H848        H  0.09992658  0.85156656  0.91439816     0.40300
H849        H  0.15474319  0.96667118  0.73203573     0.40000
H850        H  0.18183283  0.00469268  0.78340225     0.34900
C851        C  0.12991459  0.72241416  0.54793885    -0.26900
C852        C  0.12136108  0.74870244  0.57803702    -0.15000
C853        C  0.08944350  0.72737982  0.60701475     0.35700
C854        C  0.06786223  0.68072550  0.60624475    -0.26300
C855        C  0.07668011  0.65420613  0.57633880    -0.15600
C856        C  0.10797538  0.67589958  0.54615463     0.36800
N857        N  0.11813766  0.65207066  0.51247446    -0.89800
H858        H  0.15370053  0.73814206  0.52470403     0.16500
H859        H  0.04397856  0.66521139  0.62933624     0.17900
N860        N  0.07888027  0.75216456  0.63845681    -0.88800
H861        H  0.09253906  0.62756688  0.48795529     0.35200
H862        H  0.12877175  0.63720018  0.53195918     0.40300
H863        H  0.06879731  0.76648584  0.61697843     0.40000
H864        H  0.10462670  0.77789340  0.66197706     0.34900
C865        C  0.27494329  0.87350153  0.59571591    -0.26900
C866        C  0.25442310  0.88780484  0.57051800    -0.15000
C867        C  0.27676690  0.92514836  0.54606873     0.35700
C868        C  0.31859653  0.94729279  0.54743323    -0.26300
C869        C  0.33906459  0.93378043  0.57369714    -0.15600
C870        C  0.31709961  0.89661198  0.59807766     0.36800
N871        N  0.34490653  0.39614195  0.65398668    -0.89800
H872        H  0.25837941  0.84491636  0.61470708     0.17900
H873        H  0.33535940  0.97602637  0.52869197     0.17900
N874        N  0.25724191  0.94068358  0.51951670    -0.88800
H875        H  0.33180520  0.36153397  0.64733596     0.35200
H876        H  0.34335901  0.40483132  0.69068246     0.40300
H877        H  0.26345520  0.94003685  0.48327384     0.40000
H878        H  0.26997525  0.97421383  0.53469622     0.34900
C879        C  0.10877181  0.88708809  0.60289438    -0.26900
C880        C  0.13337090  0.88902822  0.56756124    -0.15000
C881        C  0.13895238  0.91333436  0.52893726     0.35700
C882        C  0.11985522  0.93545423  0.52664214    -0.26300
C883        C  0.09613887  0.93452932  0.56275827    -0.15600
C884        C  0.09062695  0.91017630  0.60120639     0.36800
N885        N  0.06625732  0.90837272  0.63824812    -0.89800
H886        H  0.10424521  0.86825304  0.63247663     0.17900
H887        H  0.12554622  0.45243246  0.52363139     0.17900
N888        N  0.16381303  0.91530062  0.49220479    -0.88800
H889        H  0.08414100  0.92115973  0.67220543     0.35200
H890        H  0.04304926  0.87456121  0.63829815     0.40300
H891        H  0.16460167  0.93432910  0.46620976     0.40000
H892        H  0.15400879  0.38309087  0.50553208     0.34900
C893        C  0.41008275  0.61012875  0.86983598    -0.26900
C894        C  0.43540554  0.61335054  0.83487350    -0.15000
C895        C  0.44184857  0.63933838  0.79780603     0.35700
C896        C  0.42272079  0.66125805  0.79609746    -0.26300
C897        C  0.39621122  0.65661595  0.82989700    -0.15600
C898        C  0.38997663  0.63086781  0.86733147     0.36800
N899        N  0.36392365  0.62562875  0.90353820    -0.89800
H900        H  0.40449621  0.58978939  0.89806738     0.17900
H901        H  0.42781976  0.68108157  0.76733838     0.17900
N902        N  0.46748363  0.64328158  0.76155036    -0.88800
H903        H  0.33443734  0.60862011  0.88621628     0.35200
H904        H  0.37327074  0.65756359  0.92083901     0.40300
H905        H  0.44423186  0.11921527  0.71691188     0.40000
H906        H  0.48467306  0.16735953  0.74961910     0.34900
C907        C  0.38601605  0.81544570  0.81160404    -0.26900
C908        C  0.40487007  0.79301102  0.80698027    -0.15000
C909        C  0.44616376  0.81765014  0.79952814     0.35700
C910        C  0.46788248  0.86441503  0.80036196    -0.26300
C911        C  0.44910988  0.88674245  0.80754810    -0.15600
C912        C  0.40741289  0.86163702  0.81115538     0.36800
N913        N  0.38674344  0.88306323  0.81386331    -0.89800
H914        H  0.35431600  0.79711599  0.81624231     0.17900
H915        H  0.49982083  0.88364823  0.79670272     0.17900
N916        N  0.46610090  0.79558022  0.79164401    -0.88800
H917        H  0.35623603  0.85998752  0.81736503     0.35200
H918        H  0.38755721  0.89392146  0.78034473     0.40300
H919        H  0.49657996  0.81888051  0.78823724     0.40000
H920        H  0.45295021  0.77389601  0.75803609     0.34900
C921        C  0.25559855  0.62397981  0.85488917    -0.26900
C922        C  0.27364151  0.65447820  0.82189073    -0.15000
C923        C  0.24909321  0.66050270  0.79081408     0.35700
C924        C  0.20753413  0.63575121  0.79306451    -0.26300
C925        C  0.18951457  0.60547787  0.82622239    -0.15600
C926        C  0.21384730  0.59935383  0.85745092     0.36800
N927        N  0.19618389  0.56759371  0.89089370    -0.89800
H928        H  0.27419458  0.61924806  0.87880241     0.17900
H929        H  0.18915050  0.64033883  0.76855983     0.17900
N930        N  0.26503306  0.69030899  0.75548231    -0.88800
H931        H  0.21846825  0.56831165  0.91213100     0.35200
H932        H  0.17790573  0.53533808  0.87003743     0.40300
H933        H  0.28076158  0.68195964  0.73311494     0.40000
H934        H  0.28471041  0.72340436  0.77381426     0.34900
C935        C  0.43557658  0.63958703  0.60265406    -0.26900
C936        C  0.42264389  0.60218808  0.56673748    -0.15000
C937        C  0.38981356  0.58516792  0.02543155     0.35700
C938        C  0.37181873  0.60863999  0.02549281    -0.26300
C939        C  0.38671343  0.64919383  0.56393738    -0.15600
C940        C  0.41801884  0.66344202  0.60148147     0.36800
N941        N  0.43124329  0.70145290  0.63870801    -0.89800
H942        H  0.45934095  0.65013846  0.63171366     0.17900
H943        H  0.34709101  0.59754702  0.99763877     0.17900
N944        N  0.37502017  0.54626522  0.98880735    -0.88800
H945        H  0.45447170  0.70751850  0.66363475     0.35200
H946        H  0.40702319  0.69305221  0.65844992     0.40300
H947        H  0.39795119  0.55409794  0.96699038     0.40000
H948        H  0.35067432  0.53954804  0.96547707     0.34900
C949        C  0.46089727  0.86507988  0.58421059    -0.26900
C950        C  0.44454883  0.88494565  0.56155713    -0.15000
C951        C  0.40528016  0.85677624  0.53571137     0.35700
C952        C  0.38293181  0.80996589  0.53439371    -0.26300
C953        C  0.39912303  0.79035523  0.55781463    -0.15600
C954        C  0.43877008  0.81840636  0.58254107     0.36800
N955        N  0.45637353  0.80002585  0.60752848    -0.89800
H956        H  0.49104471  0.88587036  0.60408710     0.17900
H957        H  0.34752364  0.78705437  0.02010996     0.17900
N958        N  0.38115075  0.87386778  0.02033838    -0.88800
H959        H  0.46393020  0.81461954  0.64449669     0.35200
H960        H  0.48305612  0.80931426  0.59304935     0.40300
H961        H  0.36084801  0.86567360  0.52580840     0.40000
H962        H  0.36830030  0.86007996  0.98385867     0.34900
C963        C  0.25144591  0.63231631  0.60354389    -0.26900
C964        C  0.26620149  0.65002715  0.56084154    -0.15000
C965        C  0.23922666  0.64458883  0.52240794     0.35700
C966        C  0.19782980  0.61967457  0.52640456    -0.26300
C967        C  0.18277990  0.60138802  0.56897011    -0.15600
C968        C  0.21004063  0.60848235  0.60836036     0.36800
N969        N  0.19563782  0.59065904  0.65255740    -0.89800
H970        H  0.27239074  0.63707772  0.63323001     0.17900
H971        H  0.17728516  0.61469647  0.49604001     0.17900
N972        N  0.25325849  0.66828673  0.98730345    -0.88800
H973        H  0.21973125  0.59983098  0.67822798     0.35200
H974        H  0.17804338  0.55552252  0.64381273     0.40300
H975        H  0.26860791  0.65649789  0.96960540     0.40000
H976        H  0.27320175  0.70311152  0.99824249     0.34900
C977        C  0.86284778  0.16272149  0.03219067     0.79700
N978        N  0.82333255  0.14263257  0.03795232    -0.78600
C979        C  0.80694430  0.16632622  0.03827448     0.82100
N980        N  0.83044861  0.21030731  0.03301264    -0.78600
C981        C  0.87004163  0.23084346  0.02727409     0.82200
N982        N  0.88610284  0.20682296  0.02708867    -0.80300
C983        C  0.87626715  0.17665364  0.29842535     0.79700
N984        N  0.83731664  0.15638812  0.30738571    -0.78600
C985        C  0.81905818  0.17789691  0.30383217     0.82100
N986        N  0.84060177  0.22006306  0.29246943    -0.78600
C987        C  0.87961375  0.24069015  0.28368611     0.82200
N988        N  0.89706976  0.21845896  0.28635962    -0.80300
C989        C  0.65806114  0.37055416  0.12697836     0.79700
N990        N  0.69726015  0.39033920  0.11916524    -0.78600
C991        C  0.71476295  0.36802105  0.12273341     0.82100
N992        N  0.69236162  0.32536830  0.13261098    -0.78600
C993        C  0.65280566  0.30465199  0.13921247     0.82200
N994        N  0.63615075  0.32785074  0.13679192    -0.80300
C995        C  0.66118468  0.37064370  0.34987017     0.79700
N996        N  0.70028479  0.39076701  0.34209933    -0.78600
C997        C  0.71763272  0.36825772  0.34358637     0.82100
N998        N  0.69544549  0.32508393  0.35177492    -0.78600
C999        C  0.65609550  0.30430669  0.35871878     0.82200
N1000       N  0.63923482  0.32739759  0.35791292    -0.80300
C1001       C  0.64110115  0.07487950  0.07578419     0.75900
Tb1002     Tb  0.95737602  0.00614683  0.05090381     1.80700
O1003       O  0.62828708  0.06485478  0.11642198    -0.52100
O1004       O  0.57879193  0.48416706  0.13267494    -0.59600
C1005       C  0.55649979  0.10968786  0.11119624     0.91700
O1006       O  0.95257875  0.06628445  0.07826380    -0.59100
Tb1007     Tb  0.55911817  0.02044890  0.08670844     1.78100
O1008       O  0.89015803  0.46370664  0.03969860    -0.59600
O1009       O  0.49708794  0.45194972  0.09336493    -0.78400
O1010       O  0.57065277  0.09106183  0.08709073    -0.77700
O1011       O  0.53106763  0.00536277  0.50665410    -0.63000
C1012       C  0.96337360  0.42479930  0.04675522     0.91300
O1013       O  0.97402059  0.99386539  0.12677534    -0.74900
C1014       C  0.87617757  0.94714313  0.06519650     0.74700
C1015       C  0.58045061  0.45983912  0.09808529     0.75700
O1016       O  0.61326196  0.05969188  0.04108699    -0.60200
O1017       O  0.56921556  0.46267210  0.05639241    -0.52100
O1018       O  0.98886989  0.02281915  0.97906653    -0.78200
O1019       O  0.54702286  0.03835381  0.16461201    -0.62200
C1020       C  0.51380284  0.02191638  0.18246169     0.89500
C1021       C  0.51884135  0.02606884  0.48723072     0.90700
C1022       C  0.93132067  0.06151546  0.04045029     0.75100
O1023       O  0.90521728  0.95983868  0.09715859    -0.51500
O1024       O  0.93128354  0.53673292  0.01601586    -0.52700
O1025       O  0.95280610  0.44559423  0.02438298    -0.65500
O1026       O  0.52090066  0.08680358  0.12273084    -0.66700
C1027       C  0.65031922  0.08363443  0.33387818     0.75900
Tb1028     Tb  0.96981969  0.02015676  0.30308850     1.80700
O1029       O  0.63454602  0.06413202  0.36959105    -0.52100
O1030       O  0.57962291  0.48111641  0.37429173    -0.59600
C1031       C  0.56465114  0.11272525  0.35361419     0.91700
O1032       O  0.96496575  0.07781616  0.33984659    -0.59100
Tb1033     Tb  0.56638968  0.02652374  0.33597776     1.78100
O1034       O  0.90127288  0.47543830  0.27897263    -0.59600
O1035       O  0.50700314  0.45857090  0.29696661    -0.78400
O1036       O  0.57664072  0.09280441  0.37509830    -0.77700
O1037       O  0.54833088  0.03816002  0.26055362    -0.63000
C1038       C  0.97165310  0.43210558  0.29211414     0.91300
O1039       O  0.00115447  0.03899277  0.38302556    -0.74900
C1040       C  0.88733917  0.96781030  0.31102365     0.74700
C1041       C  0.58935291  0.46760138  0.33721942     0.75700
O1042       O  0.62449180  0.07726178  0.30082370    -0.60200
O1043       O  0.58506979  0.48075317  0.29891730    -0.52100
O1044       O  0.97681909  0.99824164  0.22411569    -0.78200
O1045       O  0.54018172  0.01572316  0.41177883    -0.62200
C1046       C  0.52105657  0.02882154  0.43483692     0.89500
C1047       C  0.51455683  0.02201586  0.23553197     0.90700
C1048       C  0.95090601  0.08231360  0.30125673     0.75100
O1049       O  0.91432506  0.98281543  0.34670419    -0.51500
O1050       O  0.95161767  0.56186797  0.27951024    -0.52700
O1051       O  0.95916315  0.45050441  0.31996268    -0.65500
O1052       O  0.53305527  0.09052495  0.32293445    -0.66700
C1053       C  0.65125489  0.23672346  0.37786086    -0.26900
C1054       C  0.63155262  0.25614021  0.36380651    -0.15000
C1055       C  0.58922116  0.22836307  0.35122386     0.35700
C1056       C  0.56796916  0.18202014  0.35090453    -0.26300
C1057       C  0.58797544  0.16231135  0.36205142    -0.15600
C1058       C  0.62993832  0.19015805  0.37690912     0.36800
N1059       N  0.65140949  0.17132202  0.38877698    -0.89800
H1060       H  0.68366465  0.25754502  0.38817811     0.17900
H1061       H  0.53563247  0.16113489  0.34002131     0.17900
N1062       N  0.56771844  0.24637658  0.33626322    -0.88800
H1063       H  0.66616495  0.18589046  0.42446669     0.35200
H1064       H  0.67340251  0.18033869  0.36510248     0.40300
H1065       H  0.54565474  0.23865755  0.35951911     0.40000
H1066       H  0.55309622  0.23023153  0.30075912     0.34900
C1067       C  0.77485418  0.41838098  0.29966009    -0.26900
C1068       C  0.76011772  0.39048200  0.33551889    -0.15000
C1069       C  0.78636047  0.38540176  0.36410428     0.35700
C1070       C  0.82701090  0.40873087  0.35632214    -0.26300
C1071       C  0.84186065  0.43687817  0.32067361    -0.15600
C1072       C  0.81538201  0.44178227  0.29207556     0.36800
N1073       N  0.83009183  0.97589698  0.25151401    -0.89800
H1074       H  0.75480476  0.42253623  0.27779235     0.17900
H1075       H  0.84741535  0.40551615  0.37880084     0.17900
N1076       N  0.77202150  0.35777665  0.40184187    -0.88800
H1077       H  0.84024884  0.96373198  0.22425862     0.35200
H1078       H  0.85389306  0.00855764  0.26749069     0.40300
H1079       H  0.76359228  0.37261879  0.42848972     0.40000
H1080       H  0.79519464  0.35755300  0.41924291     0.34900
C1081       C  0.59429987  0.41114978  0.37209886    -0.26900
C1082       C  0.60664466  0.44169503  0.33914456    -0.15000
C1083       C  0.63787784  0.45002287  0.31122282     0.35700
C1084       C  0.65510867  0.42635343  0.31522752    -0.26300
C1085       C  0.64233286  0.39508071  0.34747113    -0.15600
C1086       C  0.61213614  0.38800214  0.37698683     0.36800
N1087       N  0.60063654  0.35854099  0.41278016    -0.89800
H1088       H  0.57108211  0.40583346  0.39453829     0.17900
H1089       H  0.67874538  0.43266272  0.29305003     0.17900
N1090       N  0.65369504  0.48420548  0.28074790    -0.88800
H1091       H  0.57818550  0.35732100  0.43155072     0.35200
H1092       H  0.62581366  0.37256089  0.43877486     0.40300
H1093       H  0.65217750  0.46961477  0.24528904     0.40000
H1094       H  0.68418345  0.50853588  0.29370745     0.34900
C1095       C  0.64635762  0.23295054  0.13861381    -0.26900
C1096       C  0.62727221  0.25523658  0.14071208    -0.15000
C1097       C  0.58444760  0.22869774  0.13880198     0.35700
C1098       C  0.56249715  0.18160106  0.13151731    -0.26300
C1099       C  0.58165580  0.15960174  0.12465492    -0.15600
C1100       C  0.62439744  0.18611487  0.12968074     0.36800
N1101       N  0.64679288  0.16690423  0.12542943    -0.89800
H1102       H  0.67895600  0.25191218  0.14135031     0.16500
H1103       H  0.52987503  0.16206866  0.12881054     0.17900
N1104       N  0.56191893  0.24782514  0.14285045    -0.88800
H1105       H  0.64117392  0.15087928  0.08942133     0.35200
H1106       H  0.63763014  0.14376324  0.14961016     0.40300
H1107       H  0.56509068  0.26417035  0.11298573     0.40000
H1108       H  0.57277525  0.27065028  0.17558419     0.34900
C1109       C  0.78333260  0.38434747  0.14051972    -0.26900
C1110       C  0.75654304  0.38790830  0.11108586    -0.15000
C1111       C  0.76934659  0.40839982  0.06912457     0.35700
C1112       C  0.80899047  0.42713457  0.05879453    -0.26300
C1113       C  0.83657443  0.42606089  0.08968589    -0.15600
C1114       C  0.82318916  0.40317666  0.13006103     0.36800
N1115       N  0.84452849  0.89044529  0.14167814    -0.89800
H1116       H  0.77344167  0.36731873  0.17199708     0.17900
H1117       H  0.81843767  0.44355098  0.02688484     0.17900
N1118       N  0.74188460  0.40938490  0.03619923    -0.88800
H1119       H  0.83110408  0.85587317  0.13878079     0.35200
H1120       H  0.84607579  0.90295139  0.17820703     0.40300
H1121       H  0.73958143  0.39267136  0.00166118     0.40000
H1122       H  0.75425379  0.44301020  0.03337248     0.34900
C1123       C  0.61250508  0.39247144  0.15331049    -0.26900
C1124       C  0.63781931  0.39303775  0.11960785    -0.15000
C1125       C  0.64148457  0.41263970  0.07742861     0.35700
C1126       C  0.62120278  0.43271728  0.07043550    -0.26300
C1127       C  0.59737981  0.43396248  0.10502376    -0.15600
C1128       C  0.59239355  0.41299414  0.14640974     0.36800
N1129       N  0.56592443  0.41117016  0.18040444    -0.89800
H1130       H  0.60856390  0.37634986  0.18519764     0.17900
H1131       H  0.62001561  0.94647905  0.03018905     0.17900
N1132       N  0.66490995  0.41115719  0.04086204    -0.88800
H1133       H  0.58236421  0.42587973  0.21519839     0.35200
H1134       H  0.54345124  0.37729132  0.18145808     0.40300
H1135       H  0.68705686  0.44419160  0.03643014     0.40000
H1136       H  0.64495704  0.87335970  0.01323066     0.34900
C1137       C  0.92248476  0.11977246  0.34406920    -0.26900
C1138       C  0.93519708  0.11004940  0.30097614    -0.15000
C1139       C  0.92896593  0.12314239  0.25747878     0.35700
C1140       C  0.91011407  0.14546620  0.25780424    -0.26300
C1141       C  0.89603781  0.15345684  0.30032187    -0.15600
C1142       C  0.90259341  0.14087233  0.34398620     0.36800
N1143       N  0.88989420  0.14968516  0.38873005    -0.89800
H1144       H  0.92674295  0.10954155  0.37764518     0.17900
H1145       H  0.90559043  0.15567906  0.22434329     0.17900
N1146       N  0.94142126  0.11361438  0.21285689    -0.88800
H1147       H  0.85854886  0.13277872  0.38355055     0.35200
H1148       H  0.90322239  0.18428428  0.39700842     0.40300
H1149       H  0.93721430  0.61718459  0.20836870     0.40000
H1150       H  0.98055913  0.66423905  0.23813587     0.34900
C1151       C  0.88366773  0.30964347  0.27374081    -0.26900
C1152       C  0.90354403  0.28844711  0.27621735    -0.15000
C1153       C  0.94607052  0.31469060  0.27676942     0.35700
C1154       C  0.96755397  0.36139014  0.27842912    -0.26300
C1155       C  0.94766795  0.38264604  0.28103011    -0.15600
C1156       C  0.90527135  0.35631347  0.27714041     0.36800
N1157       N  0.88393547  0.37684437  0.27781833    -0.89800
H1158       H  0.85114702  0.29041476  0.27182475     0.17900
H1159       H  0.00019330  0.38134332  0.28084851     0.17900
N1160       N  0.96797838  0.29484285  0.27793256    -0.88800
H1161       H  0.86709749  0.36814730  0.30737657     0.35200
H1162       H  0.86369474  0.36305297  0.24569750     0.40300
H1163       H  0.98862253  0.31016712  0.30981226     0.40000
H1164       H  0.98433381  0.30207599  0.24791546     0.34900
C1165       C  0.76104474  0.12567675  0.34676204    -0.26900
C1166       C  0.77625759  0.15575544  0.31290706    -0.15000
C1167       C  0.74984315  0.16303363  0.28775703     0.35700
C1168       C  0.70938004  0.13950905  0.29585255    -0.26300
C1169       C  0.69414020  0.10942581  0.32946811    -0.15600
C1170       C  0.72042810  0.10271196  0.35568486     0.36800
N1171       N  0.70608431  0.07292678  0.39136515    -0.89800
H1172       H  0.78103130  0.12025876  0.36669265     0.17900
H1173       H  0.68958457  0.14495731  0.27551313     0.17900
N1174       N  0.76256763  0.19302246  0.25266250    -0.88800
H1175       H  0.72967188  0.07316841  0.40857319     0.35200
H1176       H  0.68522801  0.04019643  0.37292677     0.40300
H1177       H  0.77553337  0.18416251  0.22607321     0.40000
H1178       H  0.78371937  0.22591722  0.27063839     0.34900
C1179       C  0.93315616  0.13000262  0.06587498    -0.26900
C1180       C  0.91414303  0.08761041  0.03645421    -0.15000
C1181       C  0.88231112  0.07759641  0.48681646     0.35700
C1182       C  0.86443163  0.10092513  0.48415957    -0.26300
C1183       C  0.88085784  0.13739976  0.03422990    -0.15600
C1184       C  0.91698052  0.15521333  0.06491628     0.36800
N1185       N  0.93652293  0.19830108  0.09585013    -0.89800
H1186       H  0.96069770  0.14346575  0.08980643     0.17900
H1187       H  0.83644969  0.08541983  0.46025477     0.17900
N1188       N  0.86345775  0.03411022  0.45742132    -0.88800
H1189       H  0.96280039  0.20655553  0.11614107     0.35200
H1190       H  0.91702102  0.19552979  0.12112145     0.40300
H1191       H  0.86206208  0.03777081  0.42064912     0.40000
H1192       H  0.83386037  0.01331509  0.46556334     0.34900
C1193       C  0.95888449  0.35425659  0.04879147    -0.26900
C1194       C  0.94003679  0.37496640  0.03626249    -0.15000
C1195       C  0.89898196  0.34761169  0.01640565     0.35700
C1196       C  0.87737607  0.30059373  0.01133169    -0.26300
C1197       C  0.89573439  0.27995091  0.02606021    -0.15600
C1198       C  0.93730694  0.30727459  0.04378313     0.36800
N1199       N  0.95752077  0.28787409  0.05885861    -0.89800
H1200       H  0.99048788  0.37463866  0.06365421     0.17900
H1201       H  0.83844666  0.28599737  0.50091808     0.17900
N1202       N  0.87282227  0.37384461  0.51350358    -0.88800
H1203       H  0.96908689  0.30073998  0.09580760     0.35200
H1204       H  0.98181715  0.29816222  0.03866884     0.40300
H1205       H  0.85436405  0.35623164  0.02405833     0.40000
H1206       H  0.85590024  0.36332729  0.47911529     0.34900
C1207       C  0.75140706  0.11820145  0.08552061    -0.26900
C1208       C  0.76493152  0.14539706  0.04889000    -0.15000
C1209       C  0.73797134  0.15143717  0.02322010     0.35700
C1210       C  0.69777924  0.12815743  0.03264011    -0.26300
C1211       C  0.68418594  0.10056235  0.06886028    -0.15600
C1212       C  0.71143334  0.09609297  0.09621242     0.36800
N1213       N  0.69821376  0.06814898  0.13367985    -0.89800
H1214       H  0.77216726  0.11414066  0.10588623     0.17900
H1215       H  0.67706538  0.13198204  0.01176268     0.17900
N1216       N  0.74242546  0.17449501  0.46424856    -0.88800
H1217       H  0.72221521  0.06924861  0.15090278     0.35200
H1218       H  0.67722697  0.03483662  0.11655013     0.40300
H1219       H  0.75598044  0.16615936  0.43814237     0.40000
H1220       H  0.76341872  0.20794297  0.48079905     0.34900
C1221       C  0.86180848  0.16670710  0.50895522     0.79700
N1222       N  0.82186036  0.14418752  0.51359108    -0.78600
C1223       C  0.80338355  0.16573873  0.51427496     0.82100
N1224       N  0.82540598  0.21027875  0.51069603    -0.78600
C1225       C  0.86547974  0.23328032  0.50593595     0.82200
N1226       N  0.88329956  0.21109070  0.50542420    -0.80300
C1227       C  0.87551309  0.17938047  0.81645156     0.79700
N1228       N  0.83614576  0.15864988  0.82353927    -0.78600
C1229       C  0.81803254  0.18022803  0.81948752     0.82100
N1230       N  0.83980167  0.22279895  0.80931549    -0.78600
C1231       C  0.87916373  0.24379905  0.80219070     0.82200
N1232       N  0.89660206  0.22155403  0.80532788    -0.80300
C1233       C  0.65890689  0.37333713  0.62860500     0.79700
N1234       N  0.69768419  0.39289329  0.61928519    -0.78600
C1235       C  0.71557876  0.37099845  0.62256688     0.82100
N1236       N  0.69402003  0.32884926  0.63416112    -0.78600
C1237       C  0.65487766  0.30842475  0.64269408     0.82200
N1238       N  0.63794065  0.33135610  0.64041846    -0.80300
C1239       C  0.65789191  0.36697536  0.83822114     0.79700
N1240       N  0.69802581  0.38921389  0.83511477    -0.78600
C1241       C  0.71662613  0.36819417  0.83926939     0.82100
N1242       N  0.69471292  0.32443004  0.84563294    -0.78600
C1243       C  0.65446283  0.30170639  0.84803728     0.82200
N1244       N  0.63644373  0.32330049  0.84443718    -0.80300
C1245       C  0.63964900  0.07256658  0.56312470     0.75900
Tb1246     Tb  0.96045585  0.01635837  0.54946466     1.80700
O1247       O  0.63111313  0.06442344  0.60570596    -0.52100
O1248       O  0.57890317  0.48625407  0.63519622    -0.59600
C1249       C  0.55972953  0.11372863  0.61662596     0.91700
O1250       O  0.95790278  0.07963004  0.56617578    -0.59100
Tb1251     Tb  0.56067296  0.02255590  0.58737541     1.78100
O1252       O  0.89142269  0.47235603  0.54075583    -0.59600
O1253       O  0.49745863  0.45550986  0.59429802    -0.78400
O1254       O  0.57649373  0.09542362  0.59935512    -0.77700
O1255       O  0.53061840  0.00439051  0.00574421    -0.63000
C1256       C  0.96073642  0.42812640  0.53879765     0.91300
O1257       O  0.97685840  0.00832578  0.62855268    -0.74900
C1258       C  0.87997975  0.95937067  0.56735048     0.74700
C1259       C  0.57983562  0.46137788  0.60057046     0.75700
O1260       O  0.60900102  0.05773278  0.53284277    -0.60200
O1261       O  0.56891893  0.46460334  0.55885906    -0.52100
O1262       O  0.99139192  0.02935940  0.47704153    -0.78200
O1263       O  0.54800659  0.03986803  0.66542370    -0.62200
C1264       C  0.51462732  0.02440465  0.68275920     0.89500
C1265       C  0.51644433  0.02334672  0.98639554     0.90700
C1266       C  0.93494208  0.07080896  0.52807570     0.75100
O1267       O  0.90965550  0.97499981  0.59945415    -0.51500
O1268       O  0.92717138  0.53958890  0.52092622    -0.52700
O1269       O  0.95082992  0.45118067  0.52032496    -0.65500
O1270       O  0.52218029  0.09108843  0.62066349    -0.66700
C1271       C  0.64776499  0.08268313  0.83781769     0.75900
Tb1272     Tb  0.96660723  0.01933598  0.80711289     1.80700
O1273       O  0.63118365  0.06459935  0.87395165    -0.52100
O1274       O  0.57077710  0.47020496  0.86323172    -0.59600
C1275       C  0.56250755  0.11043880  0.85061494     0.91700
O1276       O  0.96078790  0.07453481  0.84977797    -0.59100
Tb1277     Tb  0.56410457  0.02346493  0.83637421     1.78100
O1278       O  0.90161253  0.47705642  0.78154928    -0.59600
O1279       O  0.50361942  0.45646582  0.79158000    -0.78400
O1280       O  0.57449245  0.09096690  0.87323673    -0.77700
O1281       O  0.54707002  0.03573123  0.76067838    -0.63000
C1282       C  0.96968918  0.43297869  0.79450519     0.91300
O1283       O  0.99886268  0.03622517  0.88614784    -0.74900
C1284       C  0.88425429  0.96217177  0.81454869     0.74700
C1285       C  0.58425045  0.46221018  0.82615178     0.75700
O1286       O  0.62266167  0.07359730  0.80209203    -0.60200
O1287       O  0.58428761  0.48165397  0.79152911    -0.52100
O1288       O  0.97676486  0.00579197  0.72592414    -0.78200
O1289       O  0.53657620  0.01195481  0.91083682    -0.62200
C1290       C  0.51823007  0.02598359  0.93397415     0.89500
C1291       C  0.51410889  0.02234174  0.73542772     0.90700
C1292       C  0.94603763  0.08046002  0.81300952     0.75100
O1293       O  0.91145483  0.97781538  0.85011983    -0.51500
O1294       O  0.94933750  0.56181346  0.77927072    -0.52700
O1295       O  0.95743250  0.45238876  0.82105250    -0.65500
O1296       O  0.53036716  0.08762066  0.82100535    -0.66700
C1297       C  0.64920892  0.23505757  0.87214289    -0.26900
C1298       C  0.63021253  0.25341138  0.85252794    -0.15000
C1299       C  0.58853560  0.22483377  0.83566308     0.35700
C1300       C  0.56706156  0.17896285  0.83804502    -0.26300
C1301       C  0.58621696  0.16013813  0.85583333    -0.15600
C1302       C  0.62764558  0.18876084  0.87387385     0.36800
N1303       N  0.64833147  0.17101731  0.89240538    -0.89800
H1304       H  0.68115236  0.25656877  0.88551570     0.17900
H1305       H  0.53520957  0.15773663  0.82421528     0.17900
N1306       N  0.56806065  0.24157388  0.81380648    -0.88800
H1307       H  0.66100610  0.18717810  0.92845880     0.35200
H1308       H  0.67190467  0.17910970  0.87158110     0.40300
H1309       H  0.54383966  0.23403748  0.83315677     0.40000
H1310       H  0.55649141  0.22460519  0.77782157     0.34900
C1311       C  0.77618333  0.42275331  0.80141206    -0.26900
C1312       C  0.75999634  0.39232226  0.83467191    -0.15000
C1313       C  0.78536544  0.38558134  0.86274855     0.35700
C1314       C  0.82652367  0.40976006  0.85697027    -0.26300
C1315       C  0.84250535  0.43980724  0.82329977    -0.15600
C1316       C  0.81696021  0.44634340  0.79526903     0.36800
N1317       N  0.82343249  0.96225456  0.75187258    -0.89800
H1318       H  0.75692204  0.42812776  0.77974019     0.17900
H1319       H  0.84627605  0.40524000  0.87890930     0.17900
N1320       N  0.76952515  0.35504631  0.89760829    -0.88800
H1321       H  0.83385172  0.94961546  0.72562306     0.35200
H1322       H  0.84657834  0.99582162  0.76587519     0.40300
H1323       H  0.76006655  0.36801195  0.92493364     0.40000
H1324       H  0.79218015  0.35379225  0.91484678     0.34900
C1325       C  0.58463896  0.39988319  0.85152433    -0.26900
C1326       C  0.60096491  0.43551197  0.82486731    -0.15000
C1327       C  0.63556608  0.44812915  0.80162279     0.35700
C1328       C  0.65353969  0.42518984  0.80656609    -0.26300
C1329       C  0.63753852  0.38977524  0.83380106    -0.15600
C1330       C  0.60250981  0.37683648  0.85638809     0.36800
N1331       N  0.58588211  0.34140610  0.88548361    -0.89800
H1332       H  0.55828178  0.39065116  0.86955451     0.17900
H1333       H  0.68021457  0.43505015  0.78897726     0.17900
N1334       N  0.65361850  0.48563170  0.77537059    -0.88800
H1335       H  0.55978667  0.33568160  0.89868198     0.35200
H1336       H  0.60701931  0.35245292  0.91615375     0.40300
H1337       H  0.63407831  0.47607067  0.74356534     0.40000
H1338       H  0.68061035  0.49254140  0.76379760     0.34900
C1339       C  0.64900270  0.23759213  0.64912524    -0.26900
C1340       C  0.62958860  0.25930846  0.64592929    -0.15000
C1341       C  0.58660814  0.23226256  0.63969141     0.35700
C1342       C  0.56501060  0.18530917  0.63313016    -0.26300
C1343       C  0.58461592  0.16365085  0.63119254    -0.15600
C1344       C  0.62740124  0.19060921  0.64089696     0.36800
N1345       N  0.65016324  0.17175865  0.64185276    -0.89800
H1346       H  0.68166521  0.25716555  0.65530458     0.16500
H1347       H  0.53234651  0.16558947  0.62665987     0.17900
N1348       N  0.56351614  0.25065123  0.63768728    -0.88800
H1349       H  0.64714685  0.15557779  0.60670572     0.35200
H1350       H  0.63915270  0.14866351  0.66624429     0.40300
H1351       H  0.56916855  0.26686641  0.60718533     0.40000
H1352       H  0.57146254  0.27327248  0.66991379     0.34900
C1353       C  0.78410600  0.38712106  0.63823053    -0.26900
C1354       C  0.75725019  0.39154109  0.61028309    -0.15000
C1355       C  0.77041962  0.41495285  0.57026121     0.35700
C1356       C  0.81043856  0.43556789  0.56065967    -0.26300
C1357       C  0.83798648  0.43353606  0.59033235    -0.15600
C1358       C  0.82432342  0.40791792  0.62852858     0.36800
N1359       N  0.84850530  0.89671982  0.63740989    -0.89800
H1360       H  0.77406799  0.36811736  0.66823038     0.17900
H1361       H  0.82011146  0.45384670  0.53013265     0.17900
N1362       N  0.74303624  0.41700127  0.53847600    -0.88800
H1363       H  0.83451729  0.86191878  0.63037086     0.35200
H1364       H  0.85061985  0.90614723  0.67503531     0.40300
H1365       H  0.74174170  0.40265635  0.50301155     0.40000
H1366       H  0.75484755  0.45095919  0.53835141     0.34900
C1367       C  0.61009937  0.39091689  0.65274022    -0.26900
C1368       C  0.63805968  0.39527741  0.62118243    -0.15000
C1369       C  0.64413865  0.41850874  0.58138766     0.35700
C1370       C  0.62337377  0.43818712  0.57511624    -0.26300
C1371       C  0.59635304  0.43503273  0.60731793    -0.15600
C1372       C  0.58892299  0.41023604  0.64626129     0.36800
N1373       N  0.56006093  0.40336730  0.67934339    -0.89800
H1374       H  0.60465829  0.37233960  0.68280340     0.17900
H1375       H  0.61836563  0.94781807  0.53563753     0.17900
N1376       N  0.67083832  0.42146319  0.54691614    -0.88800
H1377       H  0.53871395  0.36859294  0.67679218     0.35200
H1378       H  0.54383436  0.41587744  0.66886782     0.40300
H1379       H  0.67231219  0.44021694  0.52019305     0.40000
H1380       H  0.64519542  0.87685963  0.51781361     0.34900
C1381       C  0.91488488  0.11406162  0.85752003    -0.26900
C1382       C  0.93168697  0.10952771  0.81579831    -0.15000
C1383       C  0.93176425  0.13004389  0.77572210     0.35700
C1384       C  0.91363340  0.15315830  0.77710045    -0.26300
C1385       C  0.89499075  0.15570794  0.81769087    -0.15600
C1386       C  0.89644873  0.13686123  0.85878337     0.36800
N1387       N  0.88042810  0.14135869  0.90252162    -0.89800
H1388       H  0.91500630  0.09869716  0.88871147     0.17900
H1389       H  0.91347895  0.16849967  0.74589552     0.17900
N1390       N  0.95056894  0.12783105  0.73378264    -0.88800
H1391       H  0.84943187  0.12566299  0.89420989     0.35200
H1392       H  0.89426459  0.17563744  0.91503453     0.40300
H1393       H  0.93169395  0.61045429  0.70303413     0.40000
H1394       H  0.97534248  0.65945983  0.72877774     0.34900
C1395       C  0.88253231  0.31105645  0.78478640    -0.26900
C1396       C  0.90286870  0.29101777  0.79293567    -0.15000
C1397       C  0.94546578  0.31739575  0.79466517     0.35700
C1398       C  0.96659787  0.36327623  0.79154587    -0.26300
C1399       C  0.94623814  0.38361612  0.78743065    -0.15600
C1400       C  0.90381881  0.35695114  0.78208313     0.36800
N1401       N  0.88223198  0.37641202  0.77412498    -0.89800
H1402       H  0.84991234  0.29147747  0.78179631     0.17900
H1403       H  0.99925691  0.38351207  0.79511653     0.17900
N1404       N  0.96774656  0.29853901  0.80147087    -0.88800
H1405       H  0.86409135  0.37053379  0.80214785     0.35200
H1406       H  0.86321655  0.35951569  0.74103228     0.40300
H1407       H  0.98778113  0.31608247  0.83371234     0.40000
H1408       H  0.98469256  0.30362740  0.77224117     0.34900
C1409       C  0.75940147  0.13133344  0.86275409    -0.26900
C1410       C  0.77481133  0.15726487  0.82525564    -0.15000
C1411       C  0.74827290  0.15932619  0.79287424     0.35700
C1412       C  0.70733285  0.13546233  0.79848853    -0.26300
C1413       C  0.69182477  0.10957980  0.83596953    -0.15600
C1414       C  0.71817257  0.10744668  0.86858418     0.36800
N1415       N  0.70304741  0.08040176  0.90675033    -0.89800
H1416       H  0.77962453  0.12955633  0.88749312     0.17900
H1417       H  0.68738065  0.13691125  0.77287838     0.17900
N1418       N  0.76149629  0.18372701  0.75264299    -0.88800
H1419       H  0.72660799  0.08376635  0.92833627     0.35200
H1420       H  0.68434460  0.04663489  0.88999702     0.40300
H1421       H  0.77603648  0.17281044  0.73141195     0.40000
H1422       H  0.78170155  0.21804687  0.76632038     0.34900
C1423       C  0.93641621  0.14015595  0.54576013    -0.26900
C1424       C  0.91807360  0.09672241  0.51905888    -0.15000
C1425       C  0.87770058  0.06962356  0.00601467     0.35700
C1426       C  0.86121413  0.09456381  0.00582103    -0.26300
C1427       C  0.88236079  0.14392527  0.51155233    -0.15600
C1428       C  0.91919537  0.16416879  0.54199730     0.36800
N1429       N  0.93834712  0.20840751  0.57015954    -0.89800
H1430       H  0.96400173  0.15518237  0.57026959     0.17900
H1431       H  0.83324265  0.08088720  0.98271639     0.17900
N1432       N  0.85682301  0.02562408  0.97665741    -0.88800
H1433       H  0.96538639  0.21859843  0.59019349     0.35200
H1434       H  0.91927590  0.20648247  0.59567687     0.40300
H1435       H  0.87390985  0.02784145  0.94836697     0.40000
H1436       H  0.82895331  0.01605209  0.95974317     0.34900
C1437       C  0.95521184  0.35667249  0.52192023    -0.26900
C1438       C  0.93590835  0.37855170  0.52413848    -0.15000
C1439       C  0.89347527  0.35255458  0.51409918     0.35700
C1440       C  0.87109434  0.30527471  0.50637214    -0.26300
C1441       C  0.89030060  0.28309741  0.50707045    -0.15600
C1442       C  0.93308201  0.30956503  0.51232659     0.36800
N1443       N  0.95454720  0.28917325  0.50854601    -0.89800
H1444       H  0.98789500  0.37631498  0.52779796     0.17900
H1445       H  0.84562037  0.28020950  0.99711979     0.17900
N1446       N  0.87848855  0.36726253  0.00341114    -0.88800
H1447       H  0.97366254  0.30003637  0.54121528     0.35200
H1448       H  0.97247135  0.30072776  0.48019448     0.40300
H1449       H  0.85275428  0.36253306  0.53974640     0.40000
H1450       H  0.86664398  0.35522844  0.96644536     0.34900
C1451       C  0.74929129  0.11462911  0.56153689    -0.26900
C1452       C  0.76103453  0.14209117  0.52520796    -0.15000
C1453       C  0.73227416  0.14627796  0.50089235     0.35700
C1454       C  0.69254035  0.12225271  0.51258698    -0.26300
C1455       C  0.68127495  0.09590934  0.54999881    -0.15600
C1456       C  0.70994793  0.09187306  0.57454007     0.36800
N1457       N  0.69891246  0.06415756  0.61210284    -0.89800
H1458       H  0.77118202  0.11143629  0.58049468     0.17900
H1459       H  0.67068080  0.12537290  0.49339582     0.17900
N1460       N  0.75017454  0.18011582  0.98677547    -0.88800
H1461       H  0.72365022  0.06538551  0.62700181     0.35200
H1462       H  0.67746814  0.03079721  0.59548654     0.40300
H1463       H  0.76320444  0.17064319  0.96098592     0.40000
H1464       H  0.77182239  0.21329365  0.00368018     0.34900
C1465       C  0.86344658  0.66285983  0.02985400     0.79700
N1466       N  0.82332512  0.64090222  0.03282088    -0.78600
C1467       C  0.80510305  0.66242507  0.02933320     0.82100
N1468       N  0.82744288  0.70621557  0.02296920    -0.78600
C1469       C  0.86764625  0.72849287  0.01979499     0.82200
N1470       N  0.88535744  0.70650356  0.02346872    -0.80300
C1471       C  0.87738732  0.67817989  0.31698152     0.79700
N1472       N  0.83777704  0.65700171  0.32294561    -0.78600
C1473       C  0.81918706  0.67772070  0.31680620     0.82100
N1474       N  0.84059710  0.71970222  0.30532172    -0.78600
C1475       C  0.88009641  0.74118768  0.29898854     0.82200
N1476       N  0.89830818  0.72005310  0.30476236    -0.80300
C1477       C  0.65583369  0.86783300  0.11344714     0.79700
N1478       N  0.69453997  0.88701549  0.10402165    -0.78600
C1479       C  0.71152658  0.86405765  0.10579384     0.82100
N1480       N  0.68919195  0.82149602  0.11588011    -0.78600
C1481       C  0.65015331  0.80146989  0.12441514     0.82200
N1482       N  0.63389537  0.82520556  0.12355908    -0.80300
C1483       C  0.66090060  0.87132435  0.34305050     0.79700
N1484       N  0.70076870  0.89392740  0.33829471    -0.78600
C1485       C  0.71981285  0.87332266  0.34072691     0.82100
N1486       N  0.69850438  0.82937649  0.34663759    -0.78600
C1487       C  0.65830645  0.80614670  0.35016932     0.82200
N1488       N  0.63987311  0.82750298  0.34869764    -0.80300
C1489       C  0.63878491  0.56951150  0.06598944     0.75900
Tb1490     Tb  0.96029750  0.51048204  0.06383213     1.80700
O1491       O  0.62794709  0.56360728  0.10816411    -0.52100
O1492       O  0.58094980  0.98574549  0.13207745    -0.59600
C1493       C  0.55546105  0.60725722  0.10588752     0.91700
O1494       O  0.95368241  0.56979245  0.08877547    -0.59100
Tb1495     Tb  0.55810846  0.51770923  0.08312759     1.78100
O1496       O  0.88760218  0.96131871  0.02558206    -0.59600
O1497       O  0.49762543  0.95348717  0.09374476    -0.78400
O1498       O  0.56959534  0.58820425  0.08256752    -0.77700
O1499       O  0.53081670  0.50400963  0.50440306    -0.63000
C1500       C  0.95990550  0.92124838  0.03091006     0.91300
O1501       O  0.97860029  0.50176072  0.14083055    -0.74900
C1502       C  0.87936872  0.45172319  0.08034322     0.74700
C1503       C  0.58118439  0.96156692  0.09592636     0.75700
O1504       O  0.60960705  0.55166137  0.03245820    -0.60200
O1505       O  0.56873387  0.96512711  0.05543549    -0.52100
O1506       O  0.98897804  0.52245737  0.99018795    -0.78200
O1507       O  0.54845771  0.53852412  0.16137334    -0.62200
C1508       C  0.51553090  0.52200455  0.17996964     0.89500
C1509       C  0.51586005  0.52193195  0.48418200     0.90700
C1510       C  0.93538775  0.56631539  0.04883392     0.75100
O1511       O  0.90893584  0.46690850  0.11250837    -0.51500
O1512       O  0.92492080  0.03090824  0.00723133    -0.52700
O1513       O  0.94958135  0.94221112  0.00858882    -0.65500
O1514       O  0.52023374  0.58485985  0.11865106    -0.66700
C1515       C  0.64955432  0.58392306  0.33560274     0.75900
Tb1516     Tb  0.96867487  0.51929361  0.31610340     1.80700
O1517       O  0.63327368  0.56950338  0.37331091    -0.52100
O1518       O  0.57506887  0.97608924  0.36988975    -0.59600
C1519       C  0.56630204  0.61344011  0.34606276     0.91700
O1520       O  0.95712552  0.56995295  0.35680696    -0.59100
Tb1521     Tb  0.56613751  0.52608507  0.33550322     1.78100
O1522       O  0.90119144  0.97663692  0.27067071    -0.59600
O1523       O  0.50683034  0.95903061  0.29813270    -0.78400
O1524       O  0.57700696  0.59406598  0.37090737    -0.77700
O1525       O  0.54996192  0.53666340  0.25808587    -0.63000
C1526       C  0.96987762  0.92976940  0.28553133     0.91300
O1527       O  0.99689217  0.53365216  0.39626019    -0.74900
C1528       C  0.88552709  0.46355202  0.31774376     0.74700
C1529       C  0.58638010  0.96524677  0.33240712     0.75700
O1530       O  0.62436836  0.57234470  0.29887675    -0.60200
O1531       O  0.58489544  0.98223661  0.29604125    -0.52100
O1532       O  0.97989475  0.50339523  0.23713915    -0.78200
O1533       O  0.53688639  0.51108722  0.40878508    -0.62200
C1534       C  0.51893725  0.52557583  0.43195852     0.89500
C1535       C  0.51655182  0.52192443  0.23300797     0.90700
C1536       C  0.94846729  0.58029052  0.31872884     0.75100
O1537       O  0.91102767  0.47748096  0.35483818    -0.51500
O1538       O  0.94873528  0.05802192  0.26338011    -0.52700
O1539       O  0.95888204  0.95118377  0.31110722    -0.65500
O1540       O  0.53490320  0.59009601  0.31523304    -0.66700
C1541       C  0.65249718  0.73863302  0.37268891    -0.26900
C1542       C  0.63420025  0.75726608  0.35196583    -0.15000
C1543       C  0.59345813  0.72843666  0.33084744     0.35700
C1544       C  0.57194201  0.68217634  0.33119036    -0.26300
C1545       C  0.59023739  0.66321931  0.35103621    -0.15600
C1546       C  0.63101293  0.69193133  0.37212204     0.36800
N1547       N  0.65122069  0.67390621  0.39135398    -0.89800
H1548       H  0.68384080  0.76030467  0.38873939     0.17900
H1549       H  0.54077598  0.66086061  0.31449159     0.17900
N1550       N  0.57415451  0.74547211  0.30676696    -0.88800
H1551       H  0.66216192  0.68868642  0.42809591     0.35200
H1552       H  0.67597242  0.68333292  0.37230524     0.40300
H1553       H  0.54843446  0.73677719  0.32339654     0.40000
H1554       H  0.56482248  0.72949324  0.27025689     0.34900
C1555       C  0.77700773  0.92505010  0.29738406    -0.26900
C1556       C  0.76283478  0.89792469  0.33404299    -0.15000
C1557       C  0.78980708  0.89465495  0.36359075     0.35700
C1558       C  0.83021713  0.91738331  0.35468710    -0.26300
C1559       C  0.84414938  0.94325843  0.31694438    -0.15600
C1560       C  0.81724380  0.94761976  0.28842668     0.36800
N1561       N  0.82908108  0.47232396  0.25746205    -0.89800
H1562       H  0.75652604  0.92830905  0.27511234     0.17900
H1563       H  0.85103397  0.91507394  0.37754808     0.17900
N1564       N  0.77633382  0.86925073  0.40323411    -0.88800
H1565       H  0.84078374  0.46244093  0.23005282     0.35200
H1566       H  0.85196592  0.50454949  0.27551084     0.40300
H1567       H  0.76808750  0.88516921  0.42874783     0.40000
H1568       H  0.79995483  0.87023585  0.42134528     0.34900
C1569       C  0.59013021  0.90666153  0.36337646    -0.26900
C1570       C  0.60324166  0.93888517  0.33238321    -0.15000
C1571       C  0.63523759  0.94884684  0.30513681     0.35700
C1572       C  0.65328165  0.92605404  0.30890128    -0.26300
C1573       C  0.64031645  0.89376885  0.33987384    -0.15600
C1574       C  0.60846922  0.88399636  0.36760937     0.36800
N1575       N  0.59572877  0.85224321  0.40097323    -0.89800
H1576       H  0.56601013  0.89975444  0.38492625     0.17900
H1577       H  0.67781886  0.93396839  0.28768822     0.17900
N1578       N  0.65084148  0.98361599  0.27542480    -0.88800
H1579       H  0.57222708  0.84931070  0.41877212     0.35200
H1580       H  0.61999775  0.86522907  0.42808232     0.40300
H1581       H  0.64912381  0.96953734  0.23965780     0.40000
H1582       H  0.68139143  0.00793285  0.28821593     0.34900
C1583       C  0.64450022  0.73084125  0.12964247    -0.26900
C1584       C  0.62494523  0.75252163  0.12806440    -0.15000
C1585       C  0.58208385  0.72572894  0.12505186     0.35700
C1586       C  0.56053620  0.67879755  0.12012605    -0.26300
C1587       C  0.58020017  0.65720458  0.11702070    -0.15600
C1588       C  0.62294081  0.68403779  0.12333210     0.36800
N1589       N  0.64564169  0.66511961  0.12326532    -0.89800
H1590       H  0.67715935  0.75019608  0.13353511     0.16500
H1591       H  0.52785999  0.65894845  0.11629647     0.17900
N1592       N  0.55913836  0.74438538  0.12542625    -0.88800
H1593       H  0.64085502  0.64759197  0.08831765     0.35200
H1594       H  0.63588866  0.64317513  0.14886532     0.40300
H1595       H  0.56341167  0.76010846  0.09474678     0.40000
H1596       H  0.56876838  0.76768763  0.15752554     0.34900
C1597       C  0.77868868  0.87715651  0.12151234    -0.26900
C1598       C  0.75320101  0.88392292  0.09419502    -0.15000
C1599       C  0.76760284  0.90873755  0.05546135     0.35700
C1600       C  0.80711117  0.92675844  0.04509946    -0.26300
C1601       C  0.83332990  0.92198530  0.07386616    -0.15600
C1602       C  0.81879855  0.89660875  0.11220759     0.36800
N1603       N  0.84951197  0.39779301  0.15946341    -0.89800
H1604       H  0.76778883  0.85774054  0.15111371     0.17900
H1605       H  0.81773822  0.94607049  0.01542640     0.17900
N1606       N  0.74217149  0.91567656  0.02650379    -0.88800
H1607       H  0.83603805  0.36331859  0.15768849     0.35200
H1608       H  0.85196970  0.41121964  0.19585653     0.40300
H1609       H  0.73908755  0.90205502  0.99009914     0.40000
H1610       H  0.75654561  0.95043283  0.02861544     0.34900
C1611       C  0.61455213  0.89340245  0.14572466    -0.26900
C1612       C  0.63638539  0.89140985  0.10863281    -0.15000
C1613       C  0.63796098  0.91019924  0.06632196     0.35700
C1614       C  0.61822955  0.93136581  0.06233768    -0.26300
C1615       C  0.59746804  0.93466881  0.10002884    -0.15600
C1616       C  0.59520176  0.91514383  0.14199429     0.36800
N1617       N  0.57308662  0.91716597  0.18033849    -0.89800
H1618       H  0.61301749  0.87840011  0.17788685     0.17900
H1619       H  0.62495253  0.44843023  0.03825238     0.17900
N1620       N  0.65934864  0.90743698  0.02745721    -0.88800
H1621       H  0.57438287  0.90117439  0.20857706     0.35200
H1622       H  0.54271325  0.89883479  0.16567145     0.40300
H1623       H  0.65749267  0.92279534  0.99885323     0.40000
H1624       H  0.64588044  0.39424794  0.00771187     0.34900
C1625       C  0.91334737  0.61021587  0.35924097    -0.26900
C1626       C  0.93354056  0.60866093  0.31986872    -0.15000
C1627       C  0.93641670  0.63139922  0.28078274     0.35700
C1628       C  0.91857066  0.65476106  0.28135630    -0.26300
C1629       C  0.89695982  0.65477266  0.31969450    -0.15600
C1630       C  0.89455818  0.63247630  0.35924717     0.36800
N1631       N  0.87388657  0.63241509  0.40009948    -0.89800
H1632       H  0.91088697  0.59267600  0.38941711     0.17900
H1633       H  0.92070612  0.67198886  0.25098924     0.17900
N1634       N  0.95741648  0.63091141  0.24052988    -0.88800
H1635       H  0.84329505  0.61584393  0.38779450     0.35200
H1636       H  0.88585765  0.66577884  0.41516044     0.40300
H1637       H  0.91597759  0.09401250  0.18655085     0.40000
H1638       H  0.96156479  0.14410016  0.20074016     0.34900
C1639       C  0.88351398  0.80995060  0.29064441    -0.26900
C1640       C  0.90281993  0.78791884  0.28821170    -0.15000
C1641       C  0.94337543  0.81176271  0.27785452     0.35700
C1642       C  0.96429268  0.85780716  0.27459137    -0.26300
C1643       C  0.94549390  0.88023779  0.28092533    -0.15600
C1644       C  0.90426978  0.85545031  0.28693544     0.36800
N1645       N  0.88327981  0.87640917  0.28994091    -0.89800
H1646       H  0.85221392  0.79236112  0.29708346     0.17900
H1647       H  0.99583702  0.87658283  0.26895761     0.17900
N1648       N  0.96349998  0.78976761  0.27157327    -0.88800
H1649       H  0.87157629  0.87254396  0.32341379     0.35200
H1650       H  0.85903423  0.85928897  0.26191829     0.40300
H1651       H  0.99347026  0.81255873  0.26568462     0.40000
H1652       H  0.94915262  0.76576360  0.23968776     0.34900
C1653       C  0.76015310  0.62876036  0.35940384    -0.26900
C1654       C  0.77594738  0.65476497  0.32201408    -0.15000
C1655       C  0.74987210  0.65755842  0.28964154     0.35700
C1656       C  0.70914381  0.63498811  0.29570473    -0.26300
C1657       C  0.69337887  0.60945009  0.33333397    -0.15600
C1658       C  0.71902715  0.60582397  0.36534480     0.36800
N1659       N  0.70316495  0.57796757  0.40273174    -0.89800
H1660       H  0.77995472  0.62619892  0.38394685     0.17900
H1661       H  0.68952657  0.63715573  0.27034463     0.17900
N1662       N  0.76325738  0.68127455  0.24889808    -0.88800
H1663       H  0.72620915  0.57968657  0.42352429     0.35200
H1664       H  0.68347081  0.54454978  0.38524030     0.40300
H1665       H  0.77723076  0.66947328  0.22781183     0.40000
H1666       H  0.78385815  0.71566622  0.26187356     0.34900
C1667       C  0.93583863  0.63464569  0.07073625    -0.26900
C1668       C  0.91838018  0.59221407  0.04196992    -0.15000
C1669       C  0.88456332  0.58292753  0.51902027     0.35700
C1670       C  0.86795432  0.60764488  0.52016224    -0.26300
C1671       C  0.88319236  0.63961876  0.03439363    -0.15600
C1672       C  0.91877467  0.65882038  0.06696269     0.36800
N1673       N  0.93687653  0.70219254  0.09674143    -0.89800
H1674       H  0.96271489  0.64884126  0.09630713     0.17900
H1675       H  0.83930059  0.59334479  0.49829933     0.17900
N1676       N  0.86295762  0.53910915  0.48963176    -0.88800
H1677       H  0.96299239  0.71156468  0.11843514     0.35200
H1678       H  0.91650115  0.69922424  0.12075206     0.40300
H1679       H  0.85940125  0.54262603  0.45324923     0.40000
H1680       H  0.83419801  0.51962268  0.50064630     0.34900
C1681       C  0.95590869  0.85152149  0.03251616    -0.26900
C1682       C  0.93634327  0.87160628  0.02113821    -0.15000
C1683       C  0.89466280  0.84398416  0.00447042     0.35700
C1684       C  0.87304138  0.79716230  0.00242594    -0.26300
C1685       C  0.89232355  0.77722998  0.01644043    -0.15600
C1686       C  0.93459350  0.80494392  0.03008681     0.36800
N1687       N  0.95612581  0.78649834  0.04327125    -0.89800
H1688       H  0.98807046  0.87221412  0.04454565     0.17900
H1689       H  0.84879931  0.78569093  0.49907583     0.17900
N1690       N  0.88216132  0.87123616  0.49122281    -0.88800
H1691       H  0.97011254  0.80099521  0.07927092     0.35200
H1692       H  0.97864049  0.79565974  0.02037297     0.40300
H1693       H  0.85087162  0.85372666  0.01385113     0.40000
H1694       H  0.87184847  0.85521224  0.45477643     0.34900
C1695       C  0.74884649  0.61249960  0.07447201    -0.26900
C1696       C  0.76233626  0.63950443  0.03769144    -0.15000
C1697       C  0.73478963  0.64371578  0.01032020     0.35700
C1698       C  0.69436298  0.61967154  0.01915811    -0.26300
C1699       C  0.68127343  0.59352495  0.05671628    -0.15600
C1700       C  0.70878717  0.58990844  0.08470040     0.36800
N1701       N  0.69583398  0.56269979  0.12284149    -0.89800
H1702       H  0.76985936  0.60945783  0.09585772     0.17900
H1703       H  0.67331463  0.62251147  0.99752027     0.17900
N1704       N  0.75204842  0.67646537  0.48608555    -0.88800
H1705       H  0.71992707  0.56420398  0.14038747     0.35200
H1706       H  0.67494308  0.52919329  0.10623156     0.40300
H1707       H  0.76733071  0.66693661  0.46441861     0.40000
H1708       H  0.77185451  0.71071604  0.50047035     0.34900
C1709       C  0.86882722  0.67474253  0.54861144     0.79700
N1710       N  0.82879621  0.65292518  0.55233557    -0.78600
C1711       C  0.81087429  0.67490893  0.55089896     0.82100
N1712       N  0.83329400  0.71900983  0.54570251    -0.78600
C1713       C  0.87344332  0.74116079  0.54218696     0.82200
N1714       N  0.89096467  0.71878416  0.54365629    -0.80300
C1715       C  0.87382580  0.67751811  0.80643832     0.79700
N1716       N  0.83410421  0.65588435  0.81190815    -0.78600
C1717       C  0.81496101  0.67595044  0.80507277     0.82100
N1718       N  0.83610371  0.71809594  0.79358354    -0.78600
C1719       C  0.87589340  0.74014772  0.78795374     0.82200
N1720       N  0.89441177  0.71937339  0.79429974    -0.80300
C1721       C  0.65815647  0.87281361  0.61806505     0.79700
N1722       N  0.69749153  0.89426154  0.61062633    -0.78600
C1723       C  0.71539428  0.87216886  0.60986240     0.82100
N1724       N  0.69328141  0.82817629  0.61543170    -0.78600
C1725       C  0.65356501  0.80602101  0.62188277     0.82200
N1726       N  0.63646088  0.82889800  0.62340027    -0.80300
C1727       C  0.65985059  0.86723044  0.85417302     0.79700
N1728       N  0.69927187  0.88819501  0.84708078    -0.78600
C1729       C  0.71771996  0.86683021  0.85003979     0.82100
N1730       N  0.69619458  0.82368771  0.85870672    -0.78600
C1731       C  0.65653890  0.80203388  0.86479491     0.82200
N1732       N  0.63890931  0.82424643  0.86279122    -0.80300
C1733       C  0.64184751  0.57437636  0.57649464     0.75900
Tb1734     Tb  0.96147741  0.51629754  0.56380131     1.80700
O1735       O  0.62825782  0.56760607  0.61724185    -0.52100
O1736       O  0.58793457  0.99404960  0.63447850    -0.59600
C1737       C  0.55785074  0.61051297  0.60155227     0.91700
O1738       O  0.96238618  0.58108506  0.58698744    -0.59100
Tb1739     Tb  0.55939151  0.52085113  0.58587060     1.78100
O1740       O  0.89029248  0.96989198  0.52612389    -0.59600
O1741       O  0.49963630  0.95765092  0.59926079    -0.78400
O1742       O  0.57044848  0.58991226  0.57806966    -0.77700
O1743       O  0.52695829  0.49866348  0.00285154    -0.63000
C1744       C  0.96559190  0.93249833  0.54015013     0.91300
O1745       O  0.97653692  0.50235606  0.63957877    -0.74900
C1746       C  0.88075034  0.45970813  0.58119889     0.74700
C1747       C  0.58081879  0.96294764  0.60125666     0.75700
O1748       O  0.61449044  0.55573008  0.54054452    -0.60200
O1749       O  0.56254746  0.96050719  0.56182939    -0.52100
O1750       O  0.99011711  0.52566648  0.48981960    -0.78200
O1751       O  0.54773478  0.54216652  0.66274323    -0.62200
C1752       C  0.51424661  0.52414520  0.68029644     0.89500
C1753       C  0.51298238  0.51775726  0.98335406     0.90700
C1754       C  0.93796471  0.57384638  0.55144683     0.75100
O1755       O  0.91031133  0.47376907  0.61301483    -0.51500
O1756       O  0.92629398  0.03623240  0.49982143    -0.52700
O1757       O  0.95475629  0.95126092  0.51433686    -0.65500
O1758       O  0.52347495  0.58912759  0.61681002    -0.66700
C1759       C  0.64585113  0.58062206  0.83083170     0.75900
Tb1760     Tb  0.96897461  0.52213407  0.81761819     1.80700
O1761       O  0.63033069  0.56224714  0.86730960    -0.52100
O1762       O  0.56922750  0.96990785  0.87040090    -0.59600
C1763       C  0.56254941  0.60922692  0.85329712     0.91700
O1764       O  0.95899118  0.57544536  0.85639671    -0.59100
Tb1765     Tb  0.56248411  0.52236860  0.83268574     1.78100
O1766       O  0.89801755  0.97306115  0.77449433    -0.59600
O1767       O  0.50535578  0.95792646  0.79442199    -0.78400
O1768       O  0.57288812  0.58785863  0.87476463    -0.77700
O1769       O  0.54728992  0.53822445  0.75865773    -0.63000
C1770       C  0.96755735  0.93064142  0.78402544     0.91300
O1771       O  0.99854233  0.53566236  0.89762508    -0.74900
C1772       C  0.88614991  0.46616800  0.82065334     0.74700
C1773       C  0.58553181  0.96255444  0.83625135     0.75700
O1774       O  0.61992615  0.57289634  0.79704889    -0.60200
O1775       O  0.58845712  0.98295514  0.80123179    -0.52100
O1776       O  0.97833452  0.50511114  0.73746946    -0.78200
O1777       O  0.53471170  0.50841844  0.90752856    -0.62200
C1778       C  0.51531130  0.52097217  0.93090771     0.89500
C1779       C  0.51406768  0.52279300  0.73291147     0.90700
C1780       C  0.94803944  0.58290164  0.81757204     0.75100
O1781       O  0.91182374  0.48116902  0.85787705    -0.51500
O1782       O  0.94289405  0.05728660  0.77349463    -0.52700
O1783       O  0.95667272  0.95057456  0.81226999    -0.65500
O1784       O  0.53177184  0.58834113  0.82147559    -0.66700
C1785       C  0.65065710  0.73279672  0.88125219    -0.26900
C1786       C  0.63171989  0.75332155  0.86812132    -0.15000
C1787       C  0.58949046  0.72609062  0.85422641     0.35700
C1788       C  0.56761660  0.67955215  0.85218695    -0.26300
C1789       C  0.58672121  0.65886534  0.86303037    -0.15600
C1790       C  0.62855754  0.68585470  0.87867536     0.36800
N1791       N  0.64908716  0.66577604  0.88964207    -0.89800
H1792       H  0.68297606  0.75304137  0.89212300     0.17900
H1793       H  0.53544684  0.65934316  0.84035298     0.17900
N1794       N  0.56871030  0.74494443  0.83941730    -0.88800
H1795       H  0.66333376  0.67905493  0.92565063     0.35200
H1796       H  0.67143446  0.67520291  0.86642011     0.40300
H1797       H  0.54548570  0.73596017  0.86115430     0.40000
H1798       H  0.55583105  0.73076080  0.80305125     0.34900
C1799       C  0.77260677  0.91381407  0.80137858    -0.26900
C1800       C  0.76009380  0.88941942  0.84038953    -0.15000
C1801       C  0.78816392  0.88738072  0.86950132     0.35700
C1802       C  0.82832967  0.91042954  0.85927249    -0.26300
C1803       C  0.84091083  0.93513621  0.82042913    -0.15600
C1804       C  0.81248074  0.93650979  0.79101385     0.36800
N1805       N  0.83176403  0.47809376  0.76193639    -0.89800
H1806       H  0.75117695  0.91538512  0.77876269     0.17900
H1807       H  0.85008846  0.90960545  0.88218619     0.17900
N1808       N  0.77614394  0.86303981  0.91004414    -0.88800
H1809       H  0.84328267  0.46837047  0.73423257     0.35200
H1810       H  0.85494272  0.50986881  0.78102976     0.40300
H1811       H  0.76821028  0.87916972  0.93553648     0.40000
H1812       H  0.80047848  0.86499466  0.92770056     0.34900
C1813       C  0.58701477  0.90177067  0.86733584    -0.26900
C1814       C  0.60251867  0.93591556  0.83842383    -0.15000
C1815       C  0.63623036  0.94659054  0.81429595     0.35700
C1816       C  0.65428949  0.92391811  0.82020935    -0.26300
C1817       C  0.63924753  0.89001822  0.84941641    -0.15600
C1818       C  0.60468180  0.87831142  0.87273043     0.36800
N1819       N  0.58784085  0.84316448  0.90220337    -0.89800
H1820       H  0.56112710  0.89349537  0.88591834     0.17900
H1821       H  0.68030045  0.93296532  0.80151176     0.17900
N1822       N  0.65325943  0.98165182  0.78497253    -0.88800
H1823       H  0.56235379  0.83850944  0.91616011     0.35200
H1824       H  0.60926731  0.85377542  0.93232456     0.40300
H1825       H  0.65305732  0.96784763  0.74965537     0.40000
H1826       H  0.68329682  0.00612437  0.79967334     0.34900
C1827       C  0.64718161  0.73386359  0.61279984    -0.26900
C1828       C  0.62854095  0.75629378  0.62116629    -0.15000
C1829       C  0.58647205  0.72998226  0.62548180     0.35700
C1830       C  0.56480661  0.68303592  0.62050502    -0.26300
C1831       C  0.58328031  0.66069624  0.60993877    -0.15600
C1832       C  0.62536526  0.68706637  0.60656719     0.36800
N1833       N  0.64738290  0.66786659  0.59731574    -0.89800
H1834       H  0.67918459  0.75262797  0.60962432     0.16500
H1835       H  0.53273026  0.66379007  0.62336059     0.17900
N1836       N  0.56432387  0.74918554  0.63412774    -0.88800
H1837       H  0.63691172  0.64842817  0.56242667     0.35200
H1838       H  0.64311321  0.64806458  0.62404140     0.40300
H1839       H  0.56469986  0.76469545  0.60452110     0.40000
H1840       H  0.57755369  0.77268006  0.66645691     0.34900
C1841       C  0.78305090  0.88581570  0.62293263    -0.26900
C1842       C  0.75753817  0.89441347  0.59887818    -0.15000
C1843       C  0.77218185  0.92276780  0.56307689     0.35700
C1844       C  0.81177806  0.94217242  0.55232855    -0.26300
C1845       C  0.83761142  0.93471132  0.57734783    -0.15600
C1846       C  0.82306630  0.90608351  0.61272607     0.36800
N1847       N  0.85084242  0.40201525  0.65666471    -0.89800
H1848       H  0.77204455  0.86369422  0.65012796     0.17900
H1849       H  0.82267670  0.96411652  0.52499857     0.17900
N1850       N  0.74674417  0.93127121  0.53675756    -0.88800
H1851       H  0.83810659  0.36750823  0.65247862     0.35200
H1852       H  0.85230984  0.41334009  0.69355701     0.40300
H1853       H  0.74469444  0.92068609  0.49941686     0.40000
H1854       H  0.76064690  0.96607403  0.54240670     0.34900
C1855       C  0.61532351  0.89579638  0.65115020    -0.26900
C1856       C  0.63749074  0.89494341  0.61390080    -0.15000
C1857       C  0.63792932  0.91298925  0.57149080     0.35700
C1858       C  0.61717843  0.93290217  0.56777425    -0.26300
C1859       C  0.59647090  0.93568448  0.60578316    -0.15600
C1860       C  0.59475607  0.91610571  0.64777553     0.36800
N1861       N  0.57232639  0.91559951  0.68705488    -0.89800
H1862       H  0.61426674  0.88089440  0.68324750     0.17900
H1863       H  0.62902248  0.45706712  0.54529087     0.17900
N1864       N  0.65931587  0.91083120  0.53228924    -0.88800
H1865       H  0.55050826  0.88190463  0.68974710     0.35200
H1866       H  0.55630395  0.92906248  0.67933318     0.40300
H1867       H  0.65703279  0.92616914  0.50392662     0.40000
H1868       H  0.65841204  0.38883446  0.52867345     0.34900
C1869       C  0.91400720  0.61565478  0.85619371    -0.26900
C1870       C  0.93269056  0.61100901  0.81659179    -0.15000
C1871       C  0.93331395  0.63003317  0.77481916     0.35700
C1872       C  0.91456021  0.65236796  0.77284217    -0.26300
C1873       C  0.89434113  0.65521850  0.81143211    -0.15600
C1874       C  0.89455545  0.63719546  0.85385384     0.36800
N1875       N  0.87599884  0.64101939  0.89531949    -0.89800
H1876       H  0.91331427  0.60116165  0.88849635     0.17900
H1877       H  0.91497020  0.66662161  0.74042380     0.17900
N1878       N  0.95298863  0.62680640  0.73432216    -0.88800
H1879       H  0.84507313  0.62397619  0.88470280     0.35200
H1880       H  0.88841276  0.67510417  0.90693082     0.40300
H1881       H  0.92887610  0.11281362  0.70295768     0.40000
H1882       H  0.97313873  0.16077512  0.72930093     0.34900
C1883       C  0.87946177  0.80909707  0.77759385    -0.26900
C1884       C  0.89918883  0.78756897  0.77865472    -0.15000
C1885       C  0.94102323  0.81269522  0.77374353     0.35700
C1886       C  0.96254252  0.85926415  0.77351724    -0.26300
C1887       C  0.94310670  0.88098056  0.77633136    -0.15600
C1888       C  0.90084053  0.85525898  0.77574132     0.36800
N1889       N  0.87980096  0.87616118  0.77340409    -0.89800
H1890       H  0.84726354  0.79021357  0.77930737     0.17900
H1891       H  0.99490072  0.87893229  0.77270248     0.17900
N1892       N  0.96181750  0.79136422  0.76972056    -0.88800
H1893       H  0.84878023  0.85262875  0.77331735     0.35200
H1894       H  0.88353770  0.88773600  0.73984206     0.40300
H1895       H  0.99254609  0.81497256  0.76792717     0.40000
H1896       H  0.95017575  0.76928220  0.73632822     0.34900
C1897       C  0.75732849  0.62720953  0.84976149    -0.26900
C1898       C  0.77176304  0.65250608  0.81157837    -0.15000
C1899       C  0.74439315  0.65374784  0.77978729     0.35700
C1900       C  0.70388864  0.63083989  0.78757275    -0.26300
C1901       C  0.68952694  0.60619941  0.82626503    -0.15600
C1902       C  0.71645066  0.60366059  0.85723787     0.36800
N1903       N  0.70223742  0.57648385  0.89537908    -0.89800
H1904       H  0.77805372  0.62566103  0.87382199     0.17900
H1905       H  0.68335564  0.63198704  0.76265677     0.17900
N1906       N  0.75627064  0.67624979  0.73804990    -0.88800
H1907       H  0.72609347  0.57922257  0.91542489     0.35200
H1908       H  0.68285969  0.54278056  0.87853456     0.40300
H1909       H  0.76990158  0.66417887  0.71669030     0.40000
H1910       H  0.77700579  0.71081273  0.74999380     0.34900
C1911       C  0.94184942  0.64394873  0.57603387    -0.26900
C1912       C  0.92165426  0.60087609  0.54770377    -0.15000
C1913       C  0.88329556  0.57372783  0.00884974     0.35700
C1914       C  0.86583694  0.59732409  0.00578434    -0.26300
C1915       C  0.88786072  0.65037797  0.54878704    -0.15600
C1916       C  0.92540067  0.66903147  0.57675405     0.36800
N1917       N  0.94611070  0.71271959  0.60670321    -0.89800
H1918       H  0.97026315  0.65781980  0.59821320     0.17900
H1919       H  0.83862290  0.58257633  0.98062598     0.17900
N1920       N  0.86448432  0.53032835  0.97927658    -0.88800
H1921       H  0.97345202  0.72162183  0.62463601     0.35200
H1922       H  0.92822098  0.71056275  0.63395848     0.40300
H1923       H  0.86338257  0.53413400  0.94252486     0.40000
H1924       H  0.83481036  0.50957136  0.98720589     0.34900
C1925       C  0.96056959  0.86453375  0.55690405    -0.26900
C1926       C  0.94229856  0.88291098  0.53548596    -0.15000
C1927       C  0.90180063  0.85388038  0.51368483     0.35700
C1928       C  0.88007024  0.80757547  0.51535174    -0.26300
C1929       C  0.89805171  0.78957921  0.53830420    -0.15600
C1930       C  0.93892376  0.81849661  0.55876508     0.36800
N1931       N  0.95820486  0.80179903  0.58354266    -0.89800
H1932       H  0.99173386  0.88615548  0.57362921     0.17900
H1933       H  0.84080833  0.77652269  0.99090791     0.17900
N1934       N  0.87380902  0.86325179  0.99152689    -0.88800
H1935       H  0.96779996  0.81844707  0.61980236     0.35200
H1936       H  0.98370826  0.80985890  0.56677756     0.40300
H1937       H  0.85705647  0.86280479  0.50911905     0.40000
H1938       H  0.86028846  0.84944646  0.95526637     0.34900
C1939       C  0.75419808  0.62675415  0.59666075    -0.26900
C1940       C  0.76782874  0.65132292  0.55783658    -0.15000
C1941       C  0.73989367  0.65139886  0.52583761     0.35700
C1942       C  0.69892503  0.62560324  0.53217860    -0.26300
C1943       C  0.68533184  0.60118484  0.57117795    -0.15600
C1944       C  0.71331017  0.60204957  0.60403836     0.36800
N1945       N  0.70002897  0.57704353  0.64403154    -0.89800
H1946       H  0.77563196  0.62688414  0.62138768     0.17900
H1947       H  0.67763582  0.62518396  0.50685011     0.17900
N1948       N  0.74680621  0.67182789  0.97332784    -0.88800
H1949       H  0.72447114  0.58173294  0.66507031     0.35200
H1950       H  0.68118482  0.54279576  0.62909535     0.40300
H1951       H  0.76133812  0.66334683  0.94896703     0.40000
H1952       H  0.76728888  0.70532699  0.99009181     0.34900
loop_ 
_geom_bond_atom_site_label_1 
_geom_bond_atom_site_label_2 
_geom_bond_distance 
_geom_bond_site_symmetry_2 
_ccdc_geom_bond_type 
C1            N2   1.357       .  A
C1            N6   1.355       .  A
C1          C207   1.470       .  S
N2            C3   1.358       .  A
C3            N4   1.358       .  A
C3          C232   1.472       .  S
N4            C5   1.359       .  A
C5            N6   1.357       .  A
C5          C221   1.483       .  S
C7            N8   1.357       .  A
C7           N12   1.356       .  A
C7          C165   1.462       .  S
N8            C9   1.358       .  A
C9           N10   1.354       .  A
C9          C190   1.477       .  S
N10          C11   1.358       .  A
C11          N12   1.357       .  A
C11         C176   1.479       .  S
C13          N14   1.359       .  A
C13          N18   1.355       .  A
C13         C148   1.471       .  S
N14          C15   1.359       .  A
C15          N16   1.358       .  A
C15         C134   1.484       .  S
N16          C17   1.362       .  A
C17          N18   1.356       .  A
C17         C120   1.479       .  S
C19          N20   1.358       .  A
C19          N24   1.356       .  A
C19         C109   1.481       .  S
N20          C21   1.359       .  A
C21          N22   1.360       .  A
C21          C92   1.475       .  S
N22          C23   1.359       .  A
C23          N24   1.357       .  A
C23          C78   1.485       .  S
C25         C235   1.476       .  S
C25          O40   1.261       .  A
C25          O27   1.262       .  A
Tb26         O42   2.352       .  S
Tb26         O37   2.361       .  S
Tb26         O30   2.357       .  S
Tb26         O47   2.371   1_545  S
Tb26        O536   2.347       .  S
Tb26        O537   2.346   1_545  S
Tb26        O520   2.342   1_545  S
Tb26       O1026   2.341       .  S
O27         Tb31   2.353       .  S
O28          C39   1.261       .  A
O28        Tb519   2.351       .  S
C29         C123   1.492       .  S
C29          O34   1.267       .  A
C29          O50   1.268       .  A
O30          C46   1.262       .  A
Tb31         O40   2.346       .  S
Tb31         O34   2.342       .  S
Tb31         O43   2.323       .  S
Tb31        O516   2.348   1_545  S
Tb31        O279   2.330   1_544  S
Tb31        O529   2.350   1_545  S
Tb31        O521   2.334   1_445  S
O32         C526   1.258       .  A
O32        Tb514   2.352       .  S
O33        C1012   1.266       .  A
O33        Tb519   2.339   1_655  S
O35          C45   1.271       .  A
O35        Tb275   2.336       .  S
C36         C218   1.483       .  S
C36          O49   1.267       .  A
C36        O1009   1.264       .  A
O37        C1020   1.276       .  A
C38         C625   1.475       .  S
C38          O47   1.262       .  A
C38         O520   1.257       .  A
C39         C151   1.472       .  S
C39          O41   1.262       .  A
O41        Tb519   2.341       .  S
O42        C1265   1.271   1_554  A
O43          C44   1.269       .  A
C44          C71   1.460       .  S
C44        O1013   1.274   1_445  A
C45          C70   1.468       .  S
C45        O1262   1.274   1_455  A
C46         C204   1.477       .  S
C46         O536   1.259       .  A
O48         C534   1.260       .  A
O48        Tb514   2.356       .  S
O49        Tb514   2.345       .  S
O50       Tb1002   2.343   1_455  S
C51         C193   1.475       .  S
C51          O66   1.263       .  A
C51          O53   1.260       .  A
Tb52         O68   2.345       .  S
Tb52         O63   2.341       .  S
Tb52         O56   2.358       .  S
Tb52         O73   2.352   1_545  S
Tb52        O562   2.334       .  S
Tb52        O563   2.330   1_545  S
Tb52        O546   2.354   1_545  S
Tb52       O1052   2.332       .  S
O53         Tb57   2.344       .  S
O54          C65   1.264       .  A
O54        Tb545   2.361       .  S
C55          C81   1.484       .  S
C55          O60   1.265       .  A
C55          O76   1.265       .  A
O56          C72   1.264       .  A
Tb57         O61   2.357       .  S
Tb57         O66   2.355       .  S
Tb57         O60   2.345       .  S
Tb57         O69   2.353       .  S
Tb57        O542   2.362   1_545  S
Tb57        O555   2.349   1_545  S
Tb57        O547   2.330   1_545  S
O58         C552   1.261       .  A
O58        Tb540   2.353       .  S
O59        C1038   1.265   1_455  A
O59        Tb545   2.334       .  S
O61          C71   1.277       .  A
C62         C179   1.485       .  S
C62          O75   1.266       .  A
C62        O1035   1.266       .  A
O63        C1046   1.273       .  A
C64         C583   1.479       .  S
C64          O73   1.261       .  A
C64         O546   1.262       .  A
C65         C106   1.477       .  S
C65          O67   1.259       .  A
O67        Tb545   2.346       .  S
O68        C1047   1.273       .  A
O69          C70   1.273       .  A
C70        O1039   1.270       .  A
C71        O1044   1.271   1_445  A
C72         C162   1.478       .  S
C72         O562   1.259       .  A
O74         C560   1.259       .  A
O74        Tb540   2.341       .  S
O75        Tb540   2.339       .  S
O76       Tb1028   2.332   1_455  S
C77          C78   1.408       .  A
C77          C82   1.408       .  A
C77          H84   1.084       .  S
C78          C79   1.412       .  A
C79          C80   1.396       .  A
C79          N86   1.433       .  S
C80          C81   1.404       .  A
C80          H85   1.084       .  S
C81          C82   1.413       .  A
C82          N83   1.432       .  S
N83          H87   1.046       .  S
N83          H88   1.045       .  S
N86          H89   1.046       .  S
N86          H90   1.045       .  S
C91          C92   1.403       .  A
C91          C96   1.399       .  A
C91          H98   1.084       .  S
C92          C93   1.410       .  A
C93          C94   1.403       .  A
C93         N100   1.438       .  S
C94          C95   1.404       .  A
C94          H99   1.083       .  S
C95         C552   1.477       .  S
C95          C96   1.416       .  A
C96         N585   1.433       .  S
N97         C584   1.433       .  S
N97         H101   1.043       .  S
N97         H102   1.047       .  S
N100        H103   1.046       .  S
N100        H104   1.045       .  S
C105        C106   1.401       .  A
C105        C110   1.406       .  A
C105        H112   1.084       .  S
C106        C107   1.411       .  A
C107        C108   1.401       .  A
C107        N114   1.433       .  S
C108        C109   1.403       .  A
C108        H113   1.084       .  S
C109        C110   1.416       .  A
C110        N111   1.438       .  S
N111        H115   1.046       .  S
N111        H116   1.045       .  S
N114        H117   1.046       .  S
N114        H118   1.046       .  S
C119        C120   1.398       .  A
C119        C124   1.392       .  A
C119        H126   1.084       .  S
C120        C121   1.415       .  A
C121        C122   1.403       .  A
C121        N128   1.433       .  S
C122        C123   1.410       .  A
C122        H127   1.084       .  S
C123        C124   1.423       .  A
C124        N125   1.432       .  S
N125        H129   1.045   1_554  S
N125        H130   1.043       .  S
N128        H131   1.044       .  S
N128        H132   1.046       .  S
C133        C134   1.407       .  A
C133        C138   1.410       .  A
C133        H140   1.084       .  S
C134        C135   1.410       .  A
C135        C136   1.403       .  A
C135        N142   1.433       .  S
C136        C137   1.405       .  A
C136        H141   1.084       .  S
C137        C526   1.483       .  S
C137        C138   1.410       .  A
C138        N627   1.432       .  S
N139        C626   1.432       .  S
N139        H143   1.045       .  S
N139        H144   1.045       .  S
N142        H145   1.046   1_554  S
N142        H146   1.044       .  S
C147        C148   1.404       .  A
C147        C152   1.404       .  A
C147        H154   1.084       .  S
C148        C149   1.409       .  A
C149        C150   1.401       .  A
C149        N156   1.438       .  S
C150        C151   1.402       .  A
C150        H643   1.084       .  S
C151        C152   1.410       .  A
C152        N153   1.433       .  S
N153        H157   1.045       .  S
N153        H158   1.045       .  S
H155        C638   1.084       .  S
N156        H159   1.046   1_554  S
N156        H648   1.045   1_554  S
H160        N644   1.046   1_556  S
C161        C162   1.407       .  A
C161        C166   1.399       .  A
C161        H168   1.083       .  S
C162        C163   1.414       .  A
C163        C164   1.399       .  A
C163        N170   1.433       .  S
C164        C165   1.397       .  A
C164        H169   1.085       .  S
C165        C166   1.410       .  A
C166        N167   1.433       .  S
N167        H171   1.046       .  S
N167        H172   1.045       .  S
N170        H661   1.046       .  S
N170        H662   1.045       .  S
H173        N658   1.046       .  S
H174        N658   1.045       .  S
C175        C176   1.401       .  A
C175        C180   1.395       .  A
C175        H182   1.084       .  S
C176        C177   1.412       .  A
C177        C178   1.406       .  A
C177        N184   1.433       .  S
C178        C179   1.408       .  A
C178        H183   1.084       .  S
C179        C180   1.413       .  A
C180        N181   1.430       .  S
N181        H185   1.046       .  S
N181        H186   1.046       .  S
N184        H187   1.046       .  S
N184        H188   1.046       .  S
C189        C190   1.402       .  A
C189        C194   1.404       .  A
C189        H196   1.084       .  S
C190        C191   1.416       .  A
C191        C192   1.398       .  A
C191        N198   1.433       .  S
C192        C193   1.402       .  A
C192        H197   1.084       .  S
C193        C194   1.414       .  A
C194        N195   1.439       .  S
N195        H199   1.045       .  S
N195        H200   1.046       .  S
N198        H201   1.045       .  S
N198        H202   1.045       .  S
C203        C204   1.404       .  A
C203        C208   1.404       .  A
C203        H210   1.083       .  S
C204        C449   1.416       .  A
C205        C206   1.405       .  A
C205        C448   1.415       .  A
C205        N212   1.438       .  S
C206        C451   1.400       .  A
C206        H211   1.084       .  S
C207        C208   1.409       .  A
C207        C450   1.399       .  A
C208        N209   1.438       .  S
N209        H213   1.046       .  S
N209        H214   1.045       .  S
N212        H215   1.045       .  S
N212        H216   1.046       .  S
C217        C218   1.406       .  A
C217        C222   1.398       .  A
C217        H224   1.084       .  S
C218        C219   1.411       .  A
C219        C220   1.404       .  A
C219        N470   1.432       .  S
C220        C221   1.406       .  A
C220        H469   1.084       .  S
C221        C222   1.412       .  A
C222        N223   1.433       .  S
N223        H227   1.046       .  S
N223        H228   1.046       .  S
H225        C464   1.084       .  S
N226        C463   1.432       .  S
N226        H230   1.046       .  S
N226        H473   1.046       .  S
H229        N470   1.046       .  S
C231        C232   1.403       .  A
C231        C236   1.406       .  A
C231        H238   1.084       .  S
C232        C233   1.411       .  A
C233        C234   1.398       .  A
C233        N484   1.433   1_554  S
C234        C235   1.404       .  A
C234        H239   1.084   1_554  S
C235        C236   1.413       .  A
C236        N237   1.438       .  S
N237        H241   1.045       .  S
N237        H242   1.046       .  S
N240        C477   1.433       .  S
N240        H243   1.045       .  S
N240        H244   1.044       .  S
C245        N246   1.358       .  A
C245        N250   1.356       .  A
C245        C451   1.470       .  S
N246        C247   1.358       .  A
C247        N248   1.354       .  A
C247        C476   1.467       .  S
N248        C249   1.356       .  A
C249        N250   1.358       .  A
C249        C465   1.484       .  S
C251        N252   1.359       .  A
C251        N256   1.358       .  A
C251        C409   1.472       .  S
N252        C253   1.357       .  A
C253        N254   1.354       .  A
C253        C434   1.478       .  S
N254        C255   1.358       .  A
C255        N256   1.357       .  A
C255        C420   1.488       .  S
C257        N258   1.361       .  A
C257        N262   1.356       .  A
C257        C392   1.474       .  S
N258        C259   1.360       .  A
C259        N260   1.354       .  A
C259        C378   1.479       .  S
N260        C261   1.357       .  A
C261        N262   1.356       .  A
C261        C364   1.467       .  S
C263        N264   1.357       .  A
C263        N268   1.353       .  A
C263        C353   1.476       .  S
N264        C265   1.357       .  A
C265        N266   1.359       .  A
C265        C336   1.474       .  S
N266        C267   1.359       .  A
C267        N268   1.355       .  A
C267        C322   1.481       .  S
C269        C479   1.474       .  S
C269        O284   1.259       .  A
C269        O271   1.263       .  A
Tb270       O780   2.353       .  S
Tb270       O781   2.348   1_545  S
Tb270       O764   2.345   1_545  S
Tb270       O286   2.348       .  S
Tb270       O281   2.358       .  S
Tb270       O274   2.351       .  S
Tb270      O1270   2.347       .  S
Tb270       O291   2.371   1_545  S
O271       Tb275   2.354       .  S
O272        C283   1.262       .  A
O272       Tb763   2.355       .  S
C273        C367   1.482       .  S
C273        O278   1.264       .  A
C273        O294   1.266       .  A
O274        C290   1.261       .  A
Tb275       O760   2.351   1_545  S
Tb275       O284   2.341       .  S
Tb275       O278   2.332       .  S
Tb275       O773   2.357   1_545  S
Tb275       O287   2.342       .  S
Tb275       O765   2.321   1_445  S
O276        C770   1.259       .  A
O276       Tb758   2.351       .  S
O277       C1256   1.271       .  A
O277       Tb763   2.353   1_655  S
O279        C289   1.270   1_565  A
C280        C462   1.479       .  S
C280       O1253   1.264       .  A
C280        O293   1.266       .  A
O281       C1264   1.276       .  A
C282        C869   1.474       .  S
C282        O764   1.258       .  A
C282        O291   1.263       .  A
C283        C395   1.472       .  S
C283        O285   1.261       .  A
O285       Tb763   2.340       .  S
O286       C1021   1.269       .  A
O287        C288   1.275       .  A
C288        C315   1.472       .  S
C288       O1257   1.277   1_455  A
C289        C314   1.463       .  S
C289       O1018   1.274   1_455  A
C290        C448   1.477       .  S
C290        O780   1.261       .  A
O292        C778   1.261       .  A
O292       Tb758   2.348       .  S
O293       Tb758   2.343       .  S
O294      Tb1246   2.336   1_455  S
C295        C437   1.477       .  S
C295        O310   1.262       .  A
C295        O297   1.261       .  A
Tb296       O806   2.337       .  S
Tb296       O807   2.332   1_545  S
Tb296       O790   2.354   1_545  S
Tb296       O312   2.350       .  S
Tb296       O307   2.345       .  S
Tb296       O300   2.359       .  S
Tb296      O1296   2.321       .  S
Tb296       O317   2.351   1_545  S
O297       Tb301   2.354       .  S
O298        C309   1.262       .  A
O298       Tb789   2.349       .  S
C299        C325   1.480       .  S
C299        O304   1.265       .  A
C299        O320   1.264       .  A
O300        C316   1.264       .  A
Tb301       O786   2.358   1_545  S
Tb301       O305   2.354       .  S
Tb301       O310   2.353       .  S
Tb301       O304   2.343       .  S
Tb301       O799   2.348   1_545  S
Tb301       O313   2.346       .  S
Tb301       O791   2.340   1_445  S
O302        C796   1.262       .  A
O302       Tb784   2.359       .  S
O303       C1282   1.265   1_455  A
O303       Tb789   2.334       .  S
O305        C315   1.276       .  A
C306        C423   1.476       .  S
C306       O1279   1.264       .  A
C306        O319   1.267       .  A
O307       C1290   1.274       .  A
C308        C827   1.476       .  S
C308        O790   1.262       .  A
C308        O317   1.260       .  A
C309        C350   1.467       .  S
C309        O311   1.259       .  A
O311       Tb789   2.341       .  S
O312       C1291   1.275       .  A
O313        C314   1.271       .  A
C314       O1283   1.270   1_455  A
C315       O1288   1.275   1_455  A
C316        C406   1.473       .  S
C316        O806   1.260       .  A
O318        C804   1.260       .  A
O318       Tb784   2.340       .  S
O319       Tb784   2.341       .  S
O320      Tb1272   2.328   1_455  S
C321        C322   1.406       .  A
C321        C326   1.405       .  A
C321        H328   1.084       .  S
C322        C323   1.413       .  A
C323        C324   1.395       .  A
C323        N330   1.433       .  S
C324        C325   1.403       .  A
C324        H329   1.084       .  S
C325        C326   1.411       .  A
C326        N327   1.432       .  S
N327        H331   1.046       .  S
N327        H332   1.046       .  S
N330        H333   1.046       .  S
N330        H334   1.046       .  S
C335        C336   1.405       .  A
C335        C340   1.399       .  A
C335        H342   1.084       .  S
C336        C337   1.409       .  A
C337        C338   1.401       .  A
C337        N344   1.438       .  S
C338        C339   1.403       .  A
C338        H343   1.083       .  S
C339        C796   1.473       .  S
C339        C340   1.415       .  A
C340        N829   1.433       .  S
N341        C828   1.433       .  S
N341        H345   1.045       .  S
N341        H346   1.045   1_565  S
N344        H347   1.046       .  S
N344        H348   1.045       .  S
C349        C350   1.400       .  A
C349        C354   1.404       .  A
C349        H356   1.083       .  S
C350        C351   1.408       .  A
C351        C352   1.397       .  A
C351        N358   1.433       .  S
C352        C353   1.403       .  A
C352        H357   1.084       .  S
C353        C354   1.416       .  A
C354        N355   1.438       .  S
N355        H359   1.045       .  S
N355        H360   1.047       .  S
N358        H361   1.046       .  S
N358        H362   1.046       .  S
C363        C364   1.398       .  A
C363        C368   1.391       .  A
C363        H370   1.085       .  S
C364        C365   1.410       .  A
C365        C366   1.399       .  A
C365        N372   1.433       .  S
C366        C367   1.409       .  A
C366        H371   1.084       .  S
C367        C368   1.421       .  A
C368        N369   1.433       .  S
N369        H373   1.045       .  S
N369        H374   1.044       .  S
N372        H375   1.045       .  S
N372        H376   1.046       .  S
C377        C378   1.406       .  A
C377        C382   1.408       .  A
C377        H384   1.084       .  S
C378        C379   1.407       .  A
C379        C380   1.401       .  A
C379        N386   1.432       .  S
C380        C381   1.404       .  A
C380        H385   1.082       .  S
C381        C770   1.481       .  S
C381        C382   1.410       .  A
C382        N871   1.432       .  S
N383        C870   1.432       .  S
N383        H387   1.045       .  S
N383        H388   1.046       .  S
N386        H389   1.045       .  S
N386        H390   1.045       .  S
C391        C392   1.405       .  A
C391        C396   1.405       .  A
C391        H398   1.084       .  S
C392        C393   1.410       .  A
C393        C394   1.401       .  A
C393        N400   1.438       .  S
C394        C395   1.402       .  A
C394        H887   1.084       .  S
C395        C396   1.408       .  A
C396        N397   1.433       .  S
N397        H401   1.045       .  S
N397        H402   1.045       .  S
H399        C882   1.084       .  S
N400        H403   1.047       .  S
N400        H892   1.045       .  S
H404        N888   1.045       .  S
C405        C406   1.403       .  A
C405        C410   1.399       .  A
C405        H412   1.084       .  S
C406        C407   1.410       .  A
C407        C408   1.401       .  A
C407        N414   1.433       .  S
C408        C409   1.402       .  A
C408        H413   1.084       .  S
C409        C410   1.415       .  A
C410        N411   1.433       .  S
N411        H415   1.044       .  S
N411        H416   1.046       .  S
N414        H905   1.046       .  S
N414        H906   1.044       .  S
H417        N902   1.046       .  S
H418        N902   1.044       .  S
C419        C420   1.406       .  A
C419        C424   1.395       .  A
C419        H426   1.083       .  S
C420        C421   1.416       .  A
C421        C422   1.405       .  A
C421        N428   1.433       .  S
C422        C423   1.404       .  A
C422        H427   1.084       .  S
C423        C424   1.406       .  A
C424        N425   1.430       .  S
N425        H429   1.045       .  S
N425        H430   1.046       .  S
N428        H431   1.046       .  S
N428        H432   1.046       .  S
C433        C434   1.403       .  A
C433        C438   1.406       .  A
C433        H440   1.084       .  S
C434        C435   1.416       .  A
C435        C436   1.398       .  A
C435        N442   1.433       .  S
C436        C437   1.402       .  A
C436        H441   1.084       .  S
C437        C438   1.414       .  A
C438        N439   1.439       .  S
N439        H443   1.045       .  S
N439        H444   1.046       .  S
N442        H445   1.046       .  S
N442        H446   1.044       .  S
C447        C448   1.404       .  A
C447        C452   1.404       .  A
C447        H454   1.084       .  S
C449        C450   1.404       .  A
C449        N456   1.438   1_554  S
C450        H455   1.084       .  S
C451        C452   1.409       .  A
C452        N453   1.438       .  S
N453        H457   1.046       .  S
N453        H458   1.046       .  S
N456        H459   1.046       .  S
N456        H460   1.045       .  S
C461        C462   1.405       .  A
C461        C466   1.401       .  A
C461        H468   1.083       .  S
C462        C463   1.408       .  A
C463        C464   1.402       .  A
C464        C465   1.409       .  A
C465        C466   1.415       .  A
C466        N467   1.438       .  S
N467        H471   1.045       .  S
N467        H472   1.046       .  S
N470        H474   1.045   1_554  S
C475        C476   1.400       .  A
C475        C480   1.404       .  A
C475        H482   1.084       .  S
C476        C477   1.411       .  A
C477        C478   1.397       .  A
C478        C479   1.405       .  A
C478        H483   1.084       .  S
C479        C480   1.413       .  A
C480        N481   1.438       .  S
N481        H485   1.045       .  S
N481        H486   1.046       .  S
N484        H487   1.045       .  S
N484        H488   1.045       .  S
C489        N490   1.358       .  A
C489        N494   1.357       .  A
C489        C695   1.475       .  S
N490        C491   1.359       .  A
C491        N492   1.357       .  A
C491        C720   1.474       .  S
N492        C493   1.359       .  A
C493        N494   1.359       .  A
C493        C709   1.487       .  S
C495        N496   1.362       .  A
C495        N500   1.355       .  A
C495        C653   1.468       .  S
N496        C497   1.362       .  A
C497        N498   1.355       .  A
C497        C678   1.484       .  S
N498        C499   1.357       .  A
C499        N500   1.353       .  A
C499        C664   1.477       .  S
C501        N502   1.357       .  A
C501        N506   1.354       .  A
C501        C636   1.469       .  S
N502        C503   1.359       .  A
C503        N504   1.358       .  A
C503        C622   1.484       .  S
N504        C505   1.360       .  A
C505        N506   1.354       .  A
C505        C608   1.472       .  S
C507        N508   1.359       .  A
C507        N512   1.353       .  A
C507        C597   1.482       .  S
N508        C509   1.360       .  A
C509        N510   1.359       .  A
C509        C580   1.477       .  S
N510        C511   1.360       .  A
C511        N512   1.355       .  A
C511        C566   1.484       .  S
C513        C723   1.477       .  S
C513        O528   1.259       .  A
C513        O515   1.263       .  A
Tb514       O530   2.361       .  S
Tb514       O525   2.363       .  S
Tb514       O518   2.362       .  S
Tb514      O1514   2.341       .  S
Tb514       O535   2.378       .  S
O515       Tb519   2.369       .  S
O516        C527   1.261       .  A
C517        C611   1.488       .  S
C517        O522   1.263       .  A
C517        O538   1.269       .  A
O518        C534   1.261       .  A
Tb519       O767   2.351   1_554  S
Tb519       O528   2.341       .  S
Tb519       O522   2.332       .  S
Tb519       O531   2.335       .  S
O521       C1500   1.266       .  A
O523        C533   1.269       .  A
O523       Tb763   2.327       .  S
C524        C706   1.484       .  S
C524       O1497   1.266       .  A
C524        O537   1.266       .  A
O525       C1508   1.277       .  A
C526        O535   1.263       .  A
C527        C639   1.473       .  S
C527        O529   1.263       .  A
O530       C1753   1.274   1_554  A
O531        C532   1.271       .  A
C532        C559   1.463       .  S
C532       O1501   1.273   1_455  A
C533        C558   1.462       .  S
C533       O1750   1.276   1_455  A
C534        C692   1.483       .  S
O538      Tb1490   2.345   1_455  S
C539        C681   1.481       .  S
C539        O554   1.263       .  A
C539        O541   1.260       .  A
Tb540       O556   2.341       .  S
Tb540       O551   2.346       .  S
Tb540       O544   2.361       .  S
Tb540      O1540   2.330       .  S
Tb540       O561   2.347       .  S
O541       Tb545   2.350       .  S
O542        C553   1.262       .  A
C543        C569   1.480       .  S
C543        O548   1.265       .  A
C543        O564   1.266       .  A
O544        C560   1.264       .  A
Tb545       O549   2.359       .  S
Tb545       O554   2.355       .  S
Tb545       O548   2.341       .  S
Tb545       O557   2.358       .  S
O547       C1526   1.265   1_455  A
O549        C559   1.275       .  A
C550        C667   1.481       .  S
C550       O1523   1.265       .  A
C550        O563   1.264       .  A
O551       C1534   1.273       .  A
C552        O561   1.260       .  A
C553        C594   1.476       .  S
C553        O555   1.258       .  A
O556       C1535   1.272       .  A
O557        C558   1.275       .  A
C558       O1527   1.268   1_455  A
C559       O1532   1.271   1_455  A
C560        C650   1.477       .  S
O564      Tb1516   2.332   1_455  S
C565        C566   1.407       .  A
C565        C570   1.405       .  A
C565        H572   1.084       .  S
C566        C567   1.415       .  A
C567        C568   1.396       .  A
C567        N574   1.433       .  S
C568        C569   1.402       .  A
C568        H573   1.083       .  S
C569        C570   1.411       .  A
C570        N571   1.432       .  S
N571        H575   1.046       .  S
N571        H576   1.045       .  S
N574        H577   1.046       .  S
N574        H578   1.046       .  S
C579        C580   1.403       .  A
C579        C584   1.399       .  A
C579        H586   1.084       .  S
C580        C581   1.411       .  A
C581        C582   1.406       .  A
C581        N588   1.438       .  S
C582        C583   1.405       .  A
C582        H587   1.084       .  S
C583        C584   1.415       .  A
N585        H589   1.043       .  S
N585        H590   1.046       .  S
N588        H591   1.044       .  S
N588        H592   1.046       .  S
C593        C594   1.401       .  A
C593        C598   1.404       .  A
C593        H600   1.084       .  S
C594        C595   1.411       .  A
C595        C596   1.401       .  A
C595        N602   1.433       .  S
C596        C597   1.403       .  A
C596        H601   1.084       .  S
C597        C598   1.415       .  A
C598        N599   1.433       .  S
N599        H603   1.046       .  S
N599        H604   1.045       .  S
N602        H605   1.046       .  S
N602        H606   1.046   1_565  S
C607        C608   1.398       .  A
C607        C612   1.392       .  A
C607        H614   1.085       .  S
C608        C609   1.413       .  A
C609        C610   1.399       .  A
C609        N616   1.433       .  S
C610        C611   1.408       .  A
C610        H615   1.084       .  S
C611        C612   1.423       .  A
C612        N613   1.431       .  S
N613        H617   1.046   1_554  S
N613        H618   1.042       .  S
N616        H619   1.044       .  S
N616        H620   1.046       .  S
C621        C622   1.409       .  A
C621        C626   1.407       .  A
C621        H628   1.084       .  S
C622        C623   1.412       .  A
C623        C624   1.399       .  A
C623        N630   1.433       .  S
C624        C625   1.402       .  A
C624        H629   1.082       .  S
C625        C626   1.406       .  A
N627        H631   1.045       .  S
N627        H632   1.045       .  S
N630        H633   1.046   1_554  S
N630        H634   1.045       .  S
C635        C636   1.402       .  A
C635        C640   1.401       .  A
C635        H642   1.084       .  S
C636        C637   1.410       .  A
C637        C638   1.404       .  A
C637        N644   1.438       .  S
C638        C639   1.404       .  A
C639        C640   1.409       .  A
C640        N641   1.433       .  S
N641        H645   1.046       .  S
N641        H646   1.045       .  S
N644        H647   1.046   1_554  S
C649        C650   1.405       .  A
C649        C654   1.400       .  A
C649        H656   1.082       .  S
C650        C651   1.411       .  A
C651        C652   1.400       .  A
C651        N658   1.433       .  S
C652        C653   1.401       .  A
C652        H657   1.085       .  S
C653        C654   1.411       .  A
C654        N655   1.433       .  S
N655        H659   1.045       .  S
N655        H660   1.045       .  S
C663        C664   1.398       .  A
C663        C668   1.392       .  A
C663        H670   1.084       .  S
C664        C665   1.413       .  A
C665        C666   1.406       .  A
C665        N672   1.433       .  S
C666        C667   1.407       .  A
C666        H671   1.084       .  S
C667        C668   1.412       .  A
C668        N669   1.430       .  S
N669        H673   1.046       .  S
N669        H674   1.045       .  S
N672        H675   1.046       .  S
N672        H676   1.046       .  S
C677        C678   1.403       .  A
C677        C682   1.407       .  A
C677        H684   1.084       .  S
C678        C679   1.418       .  A
C679        C680   1.398       .  A
C679        N686   1.433       .  S
C680        C681   1.402       .  A
C680        H685   1.084       .  S
C681        C682   1.415       .  A
C682        N683   1.438       .  S
N683        H687   1.045       .  S
N683        H688   1.046       .  S
N686        H689   1.046       .  S
N686        H690   1.043       .  S
C691        C692   1.405       .  A
C691        C696   1.407       .  A
C691        H698   1.084       .  S
C692        C937   1.416       .  A
C693        C936   1.411       .  A
C693        C694   1.401       .  A
C693        N700   1.433       .  S
C694        C939   1.400       .  A
C694        H699   1.084       .  S
C695        C938   1.401       .  A
C695        C696   1.409       .  A
C696        N697   1.438       .  S
N697        H701   1.046       .  S
N697        H702   1.046       .  S
N700        H703   1.044       .  S
N700        H704   1.045       .  S
C705        C706   1.405       .  A
C705        C710   1.399       .  A
C705        H712   1.083       .  S
C706        C707   1.411       .  A
C707        C708   1.406       .  A
C707        N958   1.432       .  S
C708        C709   1.408       .  A
C708        H957   1.084       .  S
C709        C710   1.413       .  A
C710        N711   1.433       .  S
N711        H715   1.046       .  S
N711        H716   1.046       .  S
H713        C952   1.084       .  S
N714        C951   1.432       .  S
N714        H961   1.045       .  S
N714        H718   1.045       .  S
H717        N958   1.045       .  S
C719        C720   1.405       .  A
C719        C724   1.409       .  A
C719        H726   1.084       .  S
C720        C721   1.411       .  A
C721        C722   1.396       .  A
C721        N972   1.433   1_554  S
C722        C723   1.404       .  A
C722        H727   1.084       .  S
C723        C724   1.412       .  A
C724        N725   1.438       .  S
N725        H729   1.046       .  S
N725        H730   1.046       .  S
N728        C965   1.432       .  S
N728        H731   1.045       .  S
N728        H732   1.045       .  S
C733        N734   1.358       .  A
C733        N738   1.356       .  A
C733        C939   1.473       .  S
N734        C735   1.359       .  A
C735        N736   1.357       .  A
C735        C964   1.473       .  S
N736        C737   1.360       .  A
C737        N738   1.358       .  A
C737        C953   1.482       .  S
C739        N740   1.358       .  A
C739        N744   1.356       .  A
C739        C897   1.471       .  S
N740        C741   1.358       .  A
C741        N742   1.354       .  A
C741        C922   1.481       .  S
N742        C743   1.358       .  A
C743        N744   1.355       .  A
C743        C908   1.485       .  S
C745        N746   1.359       .  A
C745        N750   1.358       .  A
C745        C880   1.474       .  S
N746        C747   1.360       .  A
C747        N748   1.358       .  A
C747        C866   1.487       .  S
N748        C749   1.360       .  A
C749        N750   1.357       .  A
C749        C852   1.480       .  S
C751        N752   1.359       .  A
C751        N756   1.354       .  A
C751        C841   1.482       .  S
N752        C753   1.359       .  A
C753        N754   1.359       .  A
C753        C824   1.479       .  S
N754        C755   1.359       .  A
C755        N756   1.356       .  A
C755        C810   1.485       .  S
C757        C967   1.482       .  S
C757        O772   1.260       .  A
C757        O759   1.264       .  A
Tb758       O774   2.354       .  S
Tb758       O769   2.346       .  S
Tb758       O762   2.357       .  S
Tb758      O1758   2.351       .  S
Tb758       O779   2.371       .  S
O759       Tb763   2.365       .  S
O760        C771   1.260       .  A
C761        C855   1.494       .  S
C761        O766   1.266       .  A
C761        O782   1.269       .  A
O762        C778   1.261       .  A
Tb763       O772   2.351       .  S
Tb763       O766   2.341       .  S
Tb763       O775   2.334       .  S
O765       C1744   1.263       .  A
O767        C777   1.274       .  A
C768        C950   1.485       .  S
C768       O1741   1.263       .  A
C768        O781   1.266       .  A
O769       C1752   1.272       .  A
C770        O779   1.262       .  A
C771        C883   1.475       .  S
C771        O773   1.263       .  A
O774       C1509   1.273       .  A
O775        C776   1.270       .  A
C776        C803   1.469       .  S
C776       O1745   1.273   1_455  A
C777        C802   1.469       .  S
C777       O1506   1.273   1_455  A
C778        C936   1.476       .  S
O782      Tb1734   2.346   1_455  S
C783        C925   1.480       .  S
C783        O798   1.263       .  A
C783        O785   1.259       .  A
Tb784       O800   2.341       .  S
Tb784       O795   2.340       .  S
Tb784       O788   2.355       .  S
Tb784      O1784   2.328       .  S
Tb784       O805   2.337       .  S
O785       Tb789   2.352       .  S
O786        C797   1.261       .  A
C787        C813   1.480       .  S
C787        O792   1.265       .  A
C787        O808   1.264       .  A
O788        C804   1.263       .  A
Tb789       O793   2.358       .  S
Tb789       O798   2.355       .  S
Tb789       O792   2.342       .  S
Tb789       O801   2.352       .  S
O791       C1770   1.267       .  A
O793        C803   1.276       .  A
C794        C911   1.473       .  S
C794       O1767   1.265       .  A
C794        O807   1.266       .  A
O795       C1778   1.273       .  A
C796        O805   1.260       .  A
C797        C838   1.474       .  S
C797        O799   1.258       .  A
O800       C1779   1.273       .  A
O801        C802   1.272       .  A
C802       O1771   1.272   1_455  A
C803       O1776   1.273   1_455  A
C804        C894   1.474       .  S
O808      Tb1760   2.328   1_455  S
C809        C810   1.408       .  A
C809        C814   1.405       .  A
C809        H816   1.084       .  S
C810        C811   1.415       .  A
C811        C812   1.396       .  A
C811        N818   1.433       .  S
C812        C813   1.403       .  A
C812        H817   1.083       .  S
C813        C814   1.410       .  A
C814        N815   1.432       .  S
N815        H819   1.046       .  S
N815        H820   1.046       .  S
N818        H821   1.046       .  S
N818        H822   1.046       .  S
C823        C824   1.404       .  A
C823        C828   1.398       .  A
C823        H830   1.084       .  S
C824        C825   1.413       .  A
C825        C826   1.406       .  A
C825        N832   1.438       .  S
C826        C827   1.403       .  A
C826        H831   1.084       .  S
C827        C828   1.414       .  A
N829        H833   1.044       .  S
N829        H834   1.046       .  S
N832        H835   1.046       .  S
N832        H836   1.046       .  S
C837        C838   1.401       .  A
C837        C842   1.407       .  A
C837        H844   1.084       .  S
C838        C839   1.409       .  A
C839        C840   1.399       .  A
C839        N846   1.433       .  S
C840        C841   1.403       .  A
C840        H845   1.084       .  S
C841        C842   1.418       .  A
C842        N843   1.438       .  S
N843        H847   1.047       .  S
N843        H848   1.044       .  S
N846        H849   1.046       .  S
N846        H850   1.045   1_565  S
C851        C852   1.399       .  A
C851        C856   1.394       .  A
C851        H858   1.085       .  S
C852        C853   1.415       .  A
C853        C854   1.403       .  A
C853        N860   1.433       .  S
C854        C855   1.410       .  A
C854        H859   1.084       .  S
C855        C856   1.424       .  A
C856        N857   1.432       .  S
N857        H861   1.046       .  S
N857        H862   1.043       .  S
N860        H863   1.045       .  S
N860        H864   1.046       .  S
C865        C866   1.410       .  A
C865        C870   1.407       .  A
C865        H872   1.084       .  S
C866        C867   1.412       .  A
C867        C868   1.401       .  A
C867        N874   1.433       .  S
C868        C869   1.402       .  A
C868        H873   1.084       .  S
C869        C870   1.405       .  A
N871        H875   1.045       .  S
N871        H876   1.045       .  S
N874        H877   1.045       .  S
N874        H878   1.046       .  S
C879        C880   1.403       .  A
C879        C884   1.403       .  A
C879        H886   1.084       .  S
C880        C881   1.411       .  A
C881        C882   1.406       .  A
C881        N888   1.438       .  S
C882        C883   1.404       .  A
C883        C884   1.409       .  A
C884        N885   1.433       .  S
N885        H889   1.045       .  S
N885        H890   1.045       .  S
N888        H891   1.046       .  S
C893        C894   1.404       .  A
C893        C898   1.398       .  A
C893        H900   1.082       .  S
C894        C895   1.409       .  A
C895        C896   1.400       .  A
C895        N902   1.433       .  S
C896        C897   1.402       .  A
C896        H901   1.084       .  S
C897        C898   1.413       .  A
C898        N899   1.433       .  S
N899        H903   1.045       .  S
N899        H904   1.045       .  S
C907        C908   1.404       .  A
C907        C912   1.395       .  A
C907        H914   1.083       .  S
C908        C909   1.419       .  A
C909        C910   1.406       .  A
C909        N916   1.438       .  S
C910        C911   1.402       .  A
C910        H915   1.084       .  S
C911        C912   1.408       .  A
C912        N913   1.435       .  S
N913        H917   1.046       .  S
N913        H918   1.045       .  S
N916        H919   1.046       .  S
N916        H920   1.046       .  S
C921        C922   1.403       .  A
C921        C926   1.405       .  A
C921        H928   1.084       .  S
C922        C923   1.417       .  A
C923        C924   1.397       .  A
C923        N930   1.433       .  S
C924        C925   1.402       .  A
C924        H929   1.084       .  S
C925        C926   1.416       .  A
C926        N927   1.438       .  S
N927        H931   1.046       .  S
N927        H932   1.046       .  S
N930        H933   1.045       .  S
N930        H934   1.045       .  S
C935        C936   1.404       .  A
C935        C940   1.407       .  A
C935        H942   1.084       .  S
C937        C938   1.407       .  A
C937        N944   1.438   1_554  S
C938        H943   1.084   1_554  S
C939        C940   1.411       .  A
C940        N941   1.438       .  S
N941        H945   1.045       .  S
N941        H946   1.046       .  S
N944        H947   1.045       .  S
N944        H948   1.046       .  S
C949        C950   1.407       .  A
C949        C954   1.399       .  A
C949        H956   1.084       .  S
C950        C951   1.412       .  A
C951        C952   1.404       .  A
C952        C953   1.405       .  A
C953        C954   1.411       .  A
C954        N955   1.433       .  S
N955        H959   1.046       .  S
N955        H960   1.046       .  S
N958        H962   1.045   1_554  S
C963        C964   1.401       .  A
C963        C968   1.407       .  A
C963        H970   1.084       .  S
C964        C965   1.410       .  A
C965        C966   1.400       .  A
C966        C967   1.407       .  A
C966        H971   1.084       .  S
C967        C968   1.414       .  A
C968        N969   1.438       .  S
N969        H973   1.046       .  S
N969        H974   1.045       .  S
N972        H975   1.046       .  S
N972        H976   1.044       .  S
C977        N978   1.357       .  A
C977        N982   1.358       .  A
C977       C1183   1.473       .  S
N978        C979   1.358       .  A
C979        N980   1.356       .  A
C979       C1208   1.478       .  S
N980        C981   1.358       .  A
C981        N982   1.358       .  A
C981       C1197   1.483       .  S
C983        N984   1.359       .  A
C983        N988   1.353       .  A
C983       C1141   1.465       .  S
N984        C985   1.360       .  A
C985        N986   1.356       .  A
C985       C1166   1.488       .  S
N986        C987   1.359       .  A
C987        N988   1.353       .  A
C987       C1152   1.485       .  S
C989        N990   1.361       .  A
C989        N994   1.356       .  A
C989       C1124   1.478       .  S
N990        C991   1.360       .  A
C991        N992   1.356       .  A
C991       C1110   1.483       .  S
N992        C993   1.362       .  A
C993        N994   1.357       .  A
C993       C1096   1.494       .  S
C995        N996   1.356       .  A
C995       N1000   1.356       .  A
C995       C1085   1.474       .  S
N996        C997   1.356       .  A
C997        N998   1.355       .  A
C997       C1068   1.469       .  S
N998        C999   1.357       .  A
C999       N1000   1.356       .  A
C999       C1054   1.479       .  S
C1001      C1211   1.475       .  S
C1001      O1016   1.262       .  A
C1001      O1003   1.262       .  A
Tb1002     O1512   2.345       .  S
Tb1002     O1513   2.334   1_545  S
Tb1002     O1496   2.347   1_545  S
Tb1002     O1018   2.355   1_554  S
Tb1002     O1013   2.351   1_545  S
Tb1002     O1006   2.359       .  S
Tb1002     O1023   2.369   1_545  S
O1003     Tb1007   2.352       .  S
O1004      C1015   1.262       .  A
O1004     Tb1495   2.357       .  S
C1005      C1099   1.487       .  S
C1005      O1010   1.268       .  A
C1005      O1026   1.269       .  A
O1006      C1022   1.261       .  A
Tb1007     O1492   2.351   1_545  S
Tb1007     O1255   2.334       .  S
Tb1007     O1016   2.349       .  S
Tb1007     O1010   2.346       .  S
Tb1007     O1505   2.349   1_545  S
Tb1007     O1019   2.335       .  S
Tb1007     O1497   2.337   1_545  S
O1008      C1502   1.258       .  A
O1008     Tb1490   2.353       .  S
O1009     Tb1495   2.331       .  S
O1011      C1021   1.268       .  A
O1011     Tb1251   2.336       .  S
C1012      C1194   1.483       .  S
C1012      O1025   1.266       .  A
C1014      C1601   1.480       .  S
C1014      O1496   1.258       .  A
C1014      O1023   1.262       .  A
C1015      C1127   1.474       .  S
C1015      O1017   1.262       .  A
O1017     Tb1495   2.349       .  S
O1019      C1020   1.272       .  A
C1020      C1047   1.469       .  S
C1021      C1046   1.469       .  S
C1022      C1180   1.477       .  S
C1022      O1512   1.259       .  A
O1024      C1510   1.259       .  A
O1024     Tb1490   2.349       .  S
O1025     Tb1490   2.341       .  S
C1027      C1169   1.484       .  S
C1027      O1042   1.262       .  A
C1027      O1029   1.259       .  A
Tb1028     O1538   2.341       .  S
Tb1028     O1539   2.338   1_545  S
Tb1028     O1522   2.354   1_545  S
Tb1028     O1044   2.327   1_545  S
Tb1028     O1039   2.332   1_655  S
Tb1028     O1032   2.349       .  S
Tb1028     O1049   2.341   1_545  S
O1029     Tb1033   2.366       .  S
O1030      C1041   1.261       .  A
O1030     Tb1521   2.353       .  S
C1031      C1057   1.474       .  S
C1031      O1036   1.265       .  A
C1031      O1052   1.266       .  A
O1032      C1048   1.263       .  A
Tb1033     O1518   2.348   1_545  S
Tb1033     O1037   2.350       .  S
Tb1033     O1042   2.358       .  S
Tb1033     O1036   2.333       .  S
Tb1033     O1531   2.333   1_545  S
Tb1033     O1045   2.361       .  S
Tb1033     O1523   2.339   1_545  S
O1034      C1528   1.262       .  A
O1034     Tb1516   2.353       .  S
O1035     Tb1521   2.338       .  S
O1037      C1047   1.274       .  A
C1038      C1155   1.471       .  S
C1038      O1051   1.266       .  A
C1040      C1559   1.473       .  S
C1040      O1522   1.262       .  A
C1040      O1049   1.261       .  A
C1041      C1082   1.468       .  S
C1041      O1043   1.259       .  A
O1043     Tb1521   2.342       .  S
O1045      C1046   1.276       .  A
C1048      C1138   1.473       .  S
C1048      O1538   1.261       .  A
O1050      C1536   1.262       .  A
O1050     Tb1516   2.336       .  S
O1051     Tb1516   2.334       .  S
C1053      C1054   1.407       .  A
C1053      C1058   1.401       .  A
C1053      H1060   1.084       .  S
C1054      C1055   1.412       .  A
C1055      C1056   1.396       .  A
C1055      N1062   1.433       .  S
C1056      C1057   1.403       .  A
C1056      H1061   1.084       .  S
C1057      C1058   1.409       .  A
C1058      N1059   1.433       .  S
N1059      H1063   1.045       .  S
N1059      H1064   1.046       .  S
N1062      H1065   1.046       .  S
N1062      H1066   1.046       .  S
C1067      C1068   1.402       .  A
C1067      C1072   1.396       .  A
C1067      H1074   1.084       .  S
C1068      C1069   1.410       .  A
C1069      C1070   1.401       .  A
C1069      N1076   1.439       .  S
C1070      C1071   1.403       .  A
C1070      H1075   1.084       .  S
C1071      C1528   1.470       .  S
C1071      C1072   1.414       .  A
C1072      N1561   1.433       .  S
N1073      C1560   1.433       .  S
N1073      H1077   1.045       .  S
N1073      H1078   1.045   1_565  S
N1076      H1079   1.046       .  S
N1076      H1080   1.045       .  S
C1081      C1082   1.401       .  A
C1081      C1086   1.404       .  A
C1081      H1088   1.084       .  S
C1082      C1083   1.409       .  A
C1083      C1084   1.397       .  A
C1083      N1090   1.434       .  S
C1084      C1085   1.403       .  A
C1084      H1089   1.084       .  S
C1085      C1086   1.414       .  A
C1086      N1087   1.438       .  S
N1087      H1091   1.047       .  S
N1087      H1092   1.044       .  S
N1090      H1093   1.045       .  S
N1090      H1094   1.046       .  S
C1095      C1096   1.406       .  A
C1095      C1100   1.393       .  A
C1095      H1102   1.083       .  S
C1096      C1097   1.424       .  A
C1097      C1098   1.401       .  A
C1097      N1104   1.433       .  S
C1098      C1099   1.405       .  A
C1098      H1103   1.083       .  S
C1099      C1100   1.417       .  A
C1100      N1101   1.431       .  S
N1101      H1105   1.043       .  S
N1101      H1106   1.045       .  S
N1104      H1107   1.045       .  S
N1104      H1108   1.045       .  S
C1109      C1110   1.407       .  A
C1109      C1114   1.410       .  A
C1109      H1116   1.084       .  S
C1110      C1111   1.408       .  A
C1111      C1112   1.402       .  A
C1111      N1118   1.432       .  S
C1112      C1113   1.404       .  A
C1112      H1117   1.083       .  S
C1113      C1502   1.483       .  S
C1113      C1114   1.410       .  A
C1114      N1603   1.433       .  S
N1115      C1602   1.432       .  S
N1115      H1119   1.045       .  S
N1115      H1120   1.046       .  S
N1118      H1121   1.045       .  S
N1118      H1122   1.045       .  S
C1123      C1124   1.407       .  A
C1123      C1128   1.408       .  A
C1123      H1130   1.084       .  S
C1124      C1125   1.408       .  A
C1125      C1126   1.400       .  A
C1125      N1132   1.432       .  S
C1126      C1127   1.401       .  A
C1126      H1619   1.084       .  S
C1127      C1128   1.409       .  A
C1128      N1129   1.433       .  S
N1129      H1133   1.044       .  S
N1129      H1134   1.046       .  S
H1131      C1614   1.084       .  S
N1132      H1135   1.044       .  S
N1132      H1624   1.047       .  S
H1136      N1620   1.045       .  S
C1137      C1138   1.406       .  A
C1137      C1142   1.398       .  A
C1137      H1144   1.084       .  S
C1138      C1139   1.411       .  A
C1139      C1140   1.400       .  A
C1139      N1146   1.433       .  S
C1140      C1141   1.400       .  A
C1140      H1145   1.084       .  S
C1141      C1142   1.410       .  A
C1142      N1143   1.432       .  S
N1143      H1147   1.045       .  S
N1143      H1148   1.045       .  S
N1146      H1637   1.046       .  S
N1146      H1638   1.046       .  S
H1149      N1634   1.046       .  S
H1150      N1634   1.046       .  S
C1151      C1152   1.405       .  A
C1151      C1156   1.395       .  A
C1151      H1158   1.082       .  S
C1152      C1153   1.418       .  A
C1153      C1154   1.402       .  A
C1153      N1160   1.433       .  S
C1154      C1155   1.401       .  A
C1154      H1159   1.084   1_655  S
C1155      C1156   1.406       .  A
C1156      N1157   1.431       .  S
N1157      H1161   1.045       .  S
N1157      H1162   1.045       .  S
N1160      H1163   1.046       .  S
N1160      H1164   1.046       .  S
C1165      C1166   1.406       .  A
C1165      C1170   1.409       .  A
C1165      H1172   1.084       .  S
C1166      C1167   1.419       .  A
C1167      C1168   1.397       .  A
C1167      N1174   1.432       .  S
C1168      C1169   1.401       .  A
C1168      H1173   1.084       .  S
C1169      C1170   1.416       .  A
C1170      N1171   1.439       .  S
N1171      H1175   1.048       .  S
N1171      H1176   1.042       .  S
N1174      H1177   1.045       .  S
N1174      H1178   1.044       .  S
C1179      C1180   1.403       .  A
C1179      C1184   1.404       .  A
C1179      H1186   1.084       .  S
C1180      C1425   1.416       .  A
C1181      C1424   1.414       .  A
C1181      C1182   1.404       .  A
C1181      N1188   1.433       .  S
C1182      C1427   1.401       .  A
C1182      H1187   1.084       .  S
C1183      C1426   1.400       .  A
C1183      C1184   1.411       .  A
C1184      N1185   1.438       .  S
N1185      H1189   1.046       .  S
N1185      H1190   1.045       .  S
N1188      H1191   1.046       .  S
N1188      H1192   1.045       .  S
C1193      C1194   1.406       .  A
C1193      C1198   1.401       .  A
C1193      H1200   1.083       .  S
C1194      C1195   1.411       .  A
C1195      C1196   1.402       .  A
C1195      N1446   1.432       .  S
C1196      C1197   1.406       .  A
C1196      H1445   1.084   1_554  S
C1197      C1198   1.412       .  A
C1198      N1199   1.433       .  S
N1199      H1203   1.045       .  S
N1199      H1204   1.046       .  S
H1201      C1440   1.083       .  S
N1202      C1439   1.432       .  S
N1202      H1449   1.045       .  S
N1202      H1206   1.046       .  S
H1205      N1446   1.046       .  S
C1207      C1208   1.404       .  A
C1207      C1212   1.404       .  A
C1207      H1214   1.084       .  S
C1208      C1209   1.415       .  A
C1209      C1210   1.399       .  A
C1209      N1460   1.433   1_554  S
C1210      C1211   1.403       .  A
C1210      H1215   1.084       .  S
C1211      C1212   1.412       .  A
C1212      N1213   1.438       .  S
N1213      H1217   1.046       .  S
N1213      H1218   1.046       .  S
N1216      C1453   1.432       .  S
N1216      H1219   1.043       .  S
N1216      H1220   1.044       .  S
C1221      N1222   1.358       .  A
C1221      N1226   1.356       .  A
C1221      C1427   1.481       .  S
N1222      C1223   1.361       .  A
C1223      N1224   1.360       .  A
C1223      C1452   1.484       .  S
N1224      C1225   1.362       .  A
C1225      N1226   1.358       .  A
C1225      C1441   1.494       .  S
C1227      N1228   1.358       .  A
C1227      N1232   1.354       .  A
C1227      C1385   1.468       .  S
N1228      C1229   1.359       .  A
C1229      N1230   1.356       .  A
C1229      C1410   1.478       .  S
N1230      C1231   1.358       .  A
C1231      N1232   1.354       .  A
C1231      C1396   1.484       .  S
C1233      N1234   1.359       .  A
C1233      N1238   1.356       .  A
C1233      C1368   1.482       .  S
N1234      C1235   1.359       .  A
C1235      N1236   1.358       .  A
C1235      C1354   1.482       .  S
N1236      C1237   1.362       .  A
C1237      N1238   1.357       .  A
C1237      C1340   1.495       .  S
C1239      N1240   1.357       .  A
C1239      N1244   1.353       .  A
C1239      C1329   1.480       .  S
N1240      C1241   1.358       .  A
C1241      N1242   1.357       .  A
C1241      C1312   1.473       .  S
N1242      C1243   1.356       .  A
C1243      N1244   1.355       .  A
C1243      C1298   1.479       .  S
C1245      C1455   1.480       .  S
C1245      O1260   1.263       .  A
C1245      O1247   1.262       .  A
Tb1246     O1756   2.360       .  S
Tb1246     O1757   2.344   1_545  S
Tb1246     O1740   2.350   1_545  S
Tb1246     O1262   2.357       .  S
Tb1246     O1257   2.364       .  S
Tb1246     O1250   2.368       .  S
Tb1246     O1267   2.367   1_545  S
O1247     Tb1251   2.347       .  S
O1248      C1259   1.262       .  A
O1248     Tb1739   2.354       .  S
C1249      C1343   1.490       .  S
C1249      O1254   1.268       .  A
C1249      O1270   1.272       .  A
O1250      C1266   1.262       .  A
Tb1251     O1736   2.350   1_545  S
Tb1251     O1260   2.362       .  S
Tb1251     O1254   2.336       .  S
Tb1251     O1749   2.342   1_545  S
Tb1251     O1263   2.341       .  S
Tb1251     O1741   2.331   1_545  S
O1252      C1746   1.258       .  A
O1252     Tb1734   2.347       .  S
O1253     Tb1739   2.329       .  S
O1255      C1265   1.270   1_554  A
C1256      C1438   1.480       .  S
C1256      O1269   1.265       .  A
C1258      C1845   1.475       .  S
C1258      O1740   1.257       .  A
C1258      O1267   1.260       .  A
C1259      C1371   1.475       .  S
C1259      O1261   1.264       .  A
O1261     Tb1739   2.348       .  S
O1263      C1264   1.275       .  A
C1264      C1291   1.470       .  S
C1265      C1290   1.468       .  S
C1266      C1424   1.485       .  S
C1266      O1756   1.259       .  A
O1268      C1754   1.258       .  A
O1268     Tb1734   2.350       .  S
O1269     Tb1734   2.333       .  S
C1271      C1413   1.478       .  S
C1271      O1286   1.262       .  A
C1271      O1273   1.260       .  A
Tb1272     O1782   2.337       .  S
Tb1272     O1783   2.332   1_545  S
Tb1272     O1766   2.353   1_545  S
Tb1272     O1288   2.350       .  S
Tb1272     O1283   2.334       .  S
Tb1272     O1276   2.355       .  S
Tb1272     O1293   2.341   1_545  S
O1273     Tb1277   2.352       .  S
O1274      C1285   1.263       .  A
O1274     Tb1765   2.354       .  S
C1275      C1301   1.480       .  S
C1275      O1280   1.268       .  A
C1275      O1296   1.264       .  A
O1276      C1292   1.263       .  A
Tb1277     O1762   2.373   1_545  S
Tb1277     O1281   2.352       .  S
Tb1277     O1286   2.350       .  S
Tb1277     O1280   2.350       .  S
Tb1277     O1775   2.350   1_545  S
Tb1277     O1289   2.349       .  S
Tb1277     O1767   2.333   1_545  S
O1278      C1772   1.261       .  A
O1278     Tb1760   2.342       .  S
O1279     Tb1765   2.332       .  S
O1281      C1291   1.275       .  A
C1282      C1399   1.468       .  S
C1282      O1295   1.265       .  A
C1284      C1803   1.476       .  S
C1284      O1766   1.263       .  A
C1284      O1293   1.260       .  A
C1285      C1326   1.470       .  S
C1285      O1287   1.257       .  A
O1287     Tb1765   2.342       .  S
O1289      C1290   1.274       .  A
C1292      C1382   1.470       .  S
C1292      O1782   1.260       .  A
O1294      C1780   1.260       .  A
O1294     Tb1760   2.338       .  S
O1295     Tb1760   2.331       .  S
C1297      C1298   1.406       .  A
C1297      C1302   1.404       .  A
C1297      H1304   1.084       .  S
C1298      C1299   1.411       .  A
C1299      C1300   1.395       .  A
C1299      N1306   1.434       .  S
C1300      C1301   1.406       .  A
C1300      H1305   1.084       .  S
C1301      C1302   1.410       .  A
C1302      N1303   1.432       .  S
N1303      H1307   1.045       .  S
N1303      H1308   1.046       .  S
N1306      H1309   1.046       .  S
N1306      H1310   1.045       .  S
C1311      C1312   1.402       .  A
C1311      C1316   1.394       .  A
C1311      H1318   1.084       .  S
C1312      C1313   1.413       .  A
C1313      C1314   1.403       .  A
C1313      N1320   1.438       .  S
C1314      C1315   1.402       .  A
C1314      H1319   1.084       .  S
C1315      C1772   1.468       .  S
C1315      C1316   1.413       .  A
C1316      N1805   1.433       .  S
N1317      C1804   1.433       .  S
N1317      H1321   1.044       .  S
N1317      H1322   1.046       .  S
N1320      H1323   1.045       .  S
N1320      H1324   1.046       .  S
C1325      C1326   1.399       .  A
C1325      C1330   1.402       .  A
C1325      H1332   1.084       .  S
C1326      C1327   1.413       .  A
C1327      C1328   1.402       .  A
C1327      N1334   1.439       .  S
C1328      C1329   1.404       .  A
C1328      H1333   1.084       .  S
C1329      C1330   1.416       .  A
C1330      N1331   1.438       .  S
N1331      H1335   1.045       .  S
N1331      H1336   1.046       .  S
N1334      H1337   1.044       .  S
N1334      H1338   1.047       .  S
C1339      C1340   1.407       .  A
C1339      C1344   1.398       .  A
C1339      H1346   1.084       .  S
C1340      C1341   1.424       .  A
C1341      C1342   1.398       .  A
C1341      N1348   1.433       .  S
C1342      C1343   1.404       .  A
C1342      H1347   1.084       .  S
C1343      C1344   1.420       .  A
C1344      N1345   1.433       .  S
N1345      H1349   1.044       .  S
N1345      H1350   1.045       .  S
N1348      H1351   1.045       .  S
N1348      H1352   1.045       .  S
C1353      C1354   1.406       .  A
C1353      C1358   1.408       .  A
C1353      H1360   1.084       .  S
C1354      C1355   1.410       .  A
C1355      C1356   1.401       .  A
C1355      N1362   1.432       .  S
C1356      C1357   1.403       .  A
C1356      H1361   1.082       .  S
C1357      C1746   1.480       .  S
C1357      C1358   1.408       .  A
C1358      N1847   1.432       .  S
N1359      C1846   1.432       .  S
N1359      H1363   1.046       .  S
N1359      H1364   1.044       .  S
N1362      H1365   1.044       .  S
N1362      H1366   1.047       .  S
C1367      C1368   1.406       .  A
C1367      C1372   1.406       .  A
C1367      H1374   1.084       .  S
C1368      C1369   1.412       .  A
C1369      C1370   1.401       .  A
C1369      N1376   1.437       .  S
C1370      C1371   1.401       .  A
C1370      H1863   1.084       .  S
C1371      C1372   1.419       .  A
C1372      N1373   1.440       .  S
N1373      H1377   1.046       .  S
N1373      H1378   1.041       .  S
H1375      C1858   1.084       .  S
N1376      H1379   1.046       .  S
N1376      H1868   1.045       .  S
H1380      N1864   1.045       .  S
C1381      C1382   1.404       .  A
C1381      C1386   1.400       .  A
C1381      H1388   1.084       .  S
C1382      C1383   1.408       .  A
C1383      C1384   1.399       .  A
C1383      N1390   1.433       .  S
C1384      C1385   1.402       .  A
C1384      H1389   1.084       .  S
C1385      C1386   1.412       .  A
C1386      N1387   1.433       .  S
N1387      H1391   1.045       .  S
N1387      H1392   1.045       .  S
N1390      H1881   1.045       .  S
N1390      H1882   1.046       .  S
H1393      N1878   1.046       .  S
H1394      N1878   1.046       .  S
C1395      C1396   1.407       .  A
C1395      C1400   1.398       .  A
C1395      H1402   1.083       .  S
C1396      C1397   1.417       .  A
C1397      C1398   1.400       .  A
C1397      N1404   1.433       .  S
C1398      C1399   1.399       .  A
C1398      H1403   1.083       .  S
C1399      C1400   1.405       .  A
C1400      N1401   1.432       .  S
N1401      H1405   1.045       .  S
N1401      H1406   1.046       .  S
N1404      H1407   1.045       .  S
N1404      H1408   1.046       .  S
C1409      C1410   1.403       .  A
C1409      C1414   1.407       .  A
C1409      H1416   1.084       .  S
C1410      C1411   1.416       .  A
C1411      C1412   1.395       .  A
C1411      N1418   1.433       .  S
C1412      C1413   1.402       .  A
C1412      H1417   1.084       .  S
C1413      C1414   1.415       .  A
C1414      N1415   1.438       .  S
N1415      H1419   1.045       .  S
N1415      H1420   1.046       .  S
N1418      H1421   1.046       .  S
N1418      H1422   1.044       .  S
C1423      C1424   1.404       .  A
C1423      C1428   1.408       .  A
C1423      H1430   1.084       .  S
C1425      C1426   1.404       .  A
C1425      N1432   1.438   1_554  S
C1426      H1431   1.084   1_554  S
C1427      C1428   1.414       .  A
C1428      N1429   1.438       .  S
N1429      H1433   1.045       .  S
N1429      H1434   1.046       .  S
N1432      H1435   1.045       .  S
N1432      H1436   1.046       .  S
C1437      C1438   1.400       .  A
C1437      C1442   1.401       .  A
C1437      H1444   1.084       .  S
C1438      C1439   1.410       .  A
C1439      C1440   1.406       .  A
C1440      C1441   1.409       .  A
C1441      C1442   1.418       .  A
C1442      N1443   1.432       .  S
N1443      H1447   1.046       .  S
N1443      H1448   1.046       .  S
N1446      H1450   1.046   1_554  S
C1451      C1452   1.404       .  A
C1451      C1456   1.404       .  A
C1451      H1458   1.084       .  S
C1452      C1453   1.416       .  A
C1453      C1454   1.403       .  A
C1454      C1455   1.405       .  A
C1454      H1459   1.084       .  S
C1455      C1456   1.412       .  A
C1456      N1457   1.438       .  S
N1457      H1461   1.045       .  S
N1457      H1462   1.045       .  S
N1460      H1463   1.044       .  S
N1460      H1464   1.045   1_556  S
C1465      N1466   1.357       .  A
C1465      N1470   1.353       .  A
C1465      C1671   1.473       .  S
N1466      C1467   1.359       .  A
C1467      N1468   1.358       .  A
C1467      C1696   1.479       .  S
N1468      C1469   1.360       .  A
C1469      N1470   1.357       .  A
C1469      C1685   1.484       .  S
C1471      N1472   1.358       .  A
C1471      N1476   1.357       .  A
C1471      C1629   1.466       .  S
N1472      C1473   1.356       .  A
C1473      N1474   1.352       .  A
C1473      C1654   1.475       .  S
N1474      C1475   1.356       .  A
C1475      N1476   1.355       .  A
C1475      C1640   1.485       .  S
C1477      N1478   1.359       .  A
C1477      N1482   1.357       .  A
C1477      C1612   1.474       .  S
N1478      C1479   1.359       .  A
C1479      N1480   1.355       .  A
C1479      C1598   1.479       .  S
N1480      C1481   1.360       .  A
C1481      N1482   1.357       .  A
C1481      C1584   1.493       .  S
C1483      N1484   1.356       .  A
C1483      N1488   1.354       .  A
C1483      C1573   1.472       .  S
N1484      C1485   1.356       .  A
C1485      N1486   1.359       .  A
C1485      C1556   1.472       .  S
N1486      C1487   1.359       .  A
C1487      N1488   1.356       .  A
C1487      C1542   1.480       .  S
C1489      C1699   1.474       .  S
C1489      O1504   1.261       .  A
C1489      O1491   1.262       .  A
Tb1490     O1506   2.347   1_554  S
Tb1490     O1501   2.347       .  S
Tb1490     O1494   2.363       .  S
Tb1490     O1511   2.372       .  S
O1491     Tb1495   2.347       .  S
O1492      C1503   1.262       .  A
C1493      C1587   1.484       .  S
C1493      O1498   1.269       .  A
C1493      O1514   1.270       .  A
O1494      C1510   1.261       .  A
Tb1495     O1743   2.337       .  S
Tb1495     O1504   2.355       .  S
Tb1495     O1498   2.346       .  S
Tb1495     O1507   2.336       .  S
O1499      C1509   1.273       .  A
O1499     Tb1739   2.344       .  S
C1500      C1682   1.476       .  S
C1500      O1513   1.264       .  A
C1502      O1511   1.261       .  A
C1503      C1615   1.474       .  S
C1503      O1505   1.263       .  A
O1507      C1508   1.273       .  A
C1508      C1535   1.469       .  S
C1509      C1534   1.471       .  S
C1510      C1668   1.477       .  S
C1515      C1657   1.474       .  S
C1515      O1530   1.261       .  A
C1515      O1517   1.260       .  A
Tb1516     O1532   2.327       .  S
Tb1516     O1527   2.319       .  S
Tb1516     O1520   2.339       .  S
Tb1516     O1537   2.336       .  S
O1517     Tb1521   2.351       .  S
O1518      C1529   1.263       .  A
C1519      C1545   1.483       .  S
C1519      O1524   1.266       .  A
C1519      O1540   1.264       .  A
O1520      C1536   1.262       .  A
Tb1521     O1525   2.356       .  S
Tb1521     O1530   2.345       .  S
Tb1521     O1524   2.345       .  S
Tb1521     O1533   2.351       .  S
O1525      C1535   1.274       .  A
C1526      C1643   1.475       .  S
C1526      O1539   1.268       .  A
C1528      O1537   1.260       .  A
C1529      C1570   1.465       .  S
C1529      O1531   1.259       .  A
O1533      C1534   1.272       .  A
C1536      C1626   1.467       .  S
C1541      C1542   1.406       .  A
C1541      C1546   1.406       .  A
C1541      H1548   1.084       .  S
C1542      C1543   1.411       .  A
C1543      C1544   1.396       .  A
C1543      N1550   1.434       .  S
C1544      C1545   1.405       .  A
C1544      H1549   1.084       .  S
C1545      C1546   1.412       .  A
C1546      N1547   1.432       .  S
N1547      H1551   1.046       .  S
N1547      H1552   1.046       .  S
N1550      H1553   1.046       .  S
N1550      H1554   1.046       .  S
C1555      C1556   1.404       .  A
C1555      C1560   1.398       .  A
C1555      H1562   1.084       .  S
C1556      C1557   1.409       .  A
C1557      C1558   1.403       .  A
C1557      N1564   1.438       .  S
C1558      C1559   1.403       .  A
C1558      H1563   1.084       .  S
C1559      C1560   1.415       .  A
N1561      H1565   1.045       .  S
N1561      H1566   1.043       .  S
N1564      H1567   1.047       .  S
N1564      H1568   1.045       .  S
C1569      C1570   1.400       .  A
C1569      C1574   1.403       .  A
C1569      H1576   1.084       .  S
C1570      C1571   1.409       .  A
C1571      C1572   1.396       .  A
C1571      N1578   1.434       .  S
C1572      C1573   1.402       .  A
C1572      H1577   1.084       .  S
C1573      C1574   1.414       .  A
C1574      N1575   1.438       .  S
N1575      H1579   1.046       .  S
N1575      H1580   1.044       .  S
N1578      H1581   1.044       .  S
N1578      H1582   1.046   1_565  S
C1583      C1584   1.407       .  A
C1583      C1588   1.394       .  A
C1583      H1590   1.084       .  S
C1584      C1585   1.423       .  A
C1585      C1586   1.400       .  A
C1585      N1592   1.433       .  S
C1586      C1587   1.404       .  A
C1586      H1591   1.083       .  S
C1587      C1588   1.416       .  A
C1588      N1589   1.432       .  S
N1589      H1593   1.044       .  S
N1589      H1594   1.045       .  S
N1592      H1595   1.045       .  S
N1592      H1596   1.045       .  S
C1597      C1598   1.406       .  A
C1597      C1602   1.406       .  A
C1597      H1604   1.084       .  S
C1598      C1599   1.408       .  A
C1599      C1600   1.401       .  A
C1599      N1606   1.433       .  S
C1600      C1601   1.405       .  A
C1600      H1605   1.083       .  S
C1601      C1602   1.409       .  A
N1603      H1607   1.044       .  S
N1603      H1608   1.045       .  S
N1606      H1609   1.042   1_554  S
N1606      H1610   1.047       .  S
C1611      C1612   1.404       .  A
C1611      C1616   1.407       .  A
C1611      H1618   1.084       .  S
C1612      C1613   1.410       .  A
C1613      C1614   1.403       .  A
C1613      N1620   1.438       .  S
C1614      C1615   1.403       .  A
C1615      C1616   1.411       .  A
C1616      N1617   1.438       .  S
N1617      H1621   1.045       .  S
N1617      H1622   1.046       .  S
N1620      H1623   1.046   1_554  S
C1625      C1626   1.404       .  A
C1625      C1630   1.396       .  A
C1625      H1632   1.084       .  S
C1626      C1627   1.407       .  A
C1627      C1628   1.398       .  A
C1627      N1634   1.433       .  S
C1628      C1629   1.402       .  A
C1628      H1633   1.084       .  S
C1629      C1630   1.413       .  A
C1630      N1631   1.433       .  S
N1631      H1635   1.044       .  S
N1631      H1636   1.046       .  S
C1639      C1640   1.405       .  A
C1639      C1644   1.393       .  A
C1639      H1646   1.083       .  S
C1640      C1641   1.418       .  A
C1641      C1642   1.407       .  A
C1641      N1648   1.438       .  S
C1642      C1643   1.405       .  A
C1642      H1647   1.084       .  S
C1643      C1644   1.407       .  A
C1644      N1645   1.432       .  S
N1645      H1649   1.045       .  S
N1645      H1650   1.046       .  S
N1648      H1651   1.046       .  S
N1648      H1652   1.046       .  S
C1653      C1654   1.403       .  A
C1653      C1658   1.406       .  A
C1653      H1660   1.084       .  S
C1654      C1655   1.416       .  A
C1655      C1656   1.394       .  A
C1655      N1662   1.433       .  S
C1656      C1657   1.400       .  A
C1656      H1661   1.084       .  S
C1657      C1658   1.414       .  A
C1658      N1659   1.438       .  S
N1659      H1663   1.046       .  S
N1659      H1664   1.045       .  S
N1662      H1665   1.046       .  S
N1662      H1666   1.044       .  S
C1667      C1668   1.404       .  A
C1667      C1672   1.408       .  A
C1667      H1674   1.084       .  S
C1668      C1913   1.411       .  A
C1669      C1912   1.413       .  A
C1669      C1670   1.399       .  A
C1669      N1676   1.432       .  S
C1670      C1915   1.399       .  A
C1670      H1675   1.084       .  S
C1671      C1914   1.399       .  A
C1671      C1672   1.413       .  A
C1672      N1673   1.438       .  S
N1673      H1677   1.046       .  S
N1673      H1678   1.046       .  S
N1676      H1679   1.045       .  S
N1676      H1680   1.046       .  S
C1681      C1682   1.402       .  A
C1681      C1686   1.396       .  A
C1681      H1688   1.083       .  S
C1682      C1683   1.410       .  A
C1683      C1684   1.404       .  A
C1683      N1934   1.432   1_554  S
C1684      C1685   1.408       .  A
C1684      H1933   1.083   1_554  S
C1685      C1686   1.414       .  A
C1686      N1687   1.433       .  S
N1687      H1691   1.045       .  S
N1687      H1692   1.045       .  S
H1689      C1928   1.084       .  S
N1690      C1927   1.432       .  S
N1690      H1937   1.046       .  S
N1690      H1694   1.045       .  S
H1693      N1934   1.046   1_554  S
C1695      C1696   1.403       .  A
C1695      C1700   1.402       .  A
C1695      H1702   1.084       .  S
C1696      C1697   1.416       .  A
C1697      C1698   1.401       .  A
C1697      N1948   1.432   1_554  S
C1698      C1699   1.403       .  A
C1698      H1703   1.084   1_554  S
C1699      C1700   1.411       .  A
C1700      N1701   1.438       .  S
N1701      H1705   1.045       .  S
N1701      H1706   1.046       .  S
N1704      C1941   1.433       .  S
N1704      H1707   1.045       .  S
N1704      H1708   1.045       .  S
C1709      N1710   1.358       .  A
C1709      N1714   1.354       .  A
C1709      C1915   1.474       .  S
N1710      C1711   1.358       .  A
C1711      N1712   1.358       .  A
C1711      C1940   1.477       .  S
N1712      C1713   1.360       .  A
C1713      N1714   1.357       .  A
C1713      C1929   1.478       .  S
C1715      N1716   1.357       .  A
C1715      N1720   1.356       .  A
C1715      C1873   1.471       .  S
N1716      C1717   1.358       .  A
C1717      N1718   1.357       .  A
C1717      C1898   1.480       .  S
N1718      C1719   1.360       .  A
C1719      N1720   1.357       .  A
C1719      C1884   1.491       .  S
C1721      N1722   1.358       .  A
C1721      N1726   1.354       .  A
C1721      C1856   1.468       .  S
N1722      C1723   1.358       .  A
C1723      N1724   1.357       .  A
C1723      C1842   1.481       .  S
N1724      C1725   1.362       .  A
C1725      N1726   1.355       .  A
C1725      C1828   1.493       .  S
C1727      N1728   1.360       .  A
C1727      N1732   1.353       .  A
C1727      C1817   1.489       .  S
N1728      C1729   1.360       .  A
C1729      N1730   1.358       .  A
C1729      C1800   1.476       .  S
N1730      C1731   1.359       .  A
C1731      N1732   1.357       .  A
C1731      C1786   1.483       .  S
C1733      C1943   1.477       .  S
C1733      O1748   1.261       .  A
C1733      O1735   1.263       .  A
Tb1734     O1750   2.357       .  S
Tb1734     O1745   2.354       .  S
Tb1734     O1738   2.362       .  S
Tb1734     O1755   2.369       .  S
O1735     Tb1739   2.353       .  S
O1736      C1747   1.262       .  A
C1737      C1831   1.489       .  S
C1737      O1742   1.266       .  A
C1737      O1758   1.271       .  A
O1738      C1754   1.261       .  A
Tb1739     O1748   2.353       .  S
Tb1739     O1742   2.338       .  S
Tb1739     O1751   2.342       .  S
O1743      C1753   1.270   1_554  A
C1744      C1926   1.479       .  S
C1744      O1757   1.267       .  A
C1746      O1755   1.263       .  A
C1747      C1859   1.468       .  S
C1747      O1749   1.262       .  A
O1751      C1752   1.273       .  A
C1752      C1779   1.464       .  S
C1753      C1778   1.473       .  S
C1754      C1912   1.479       .  S
C1759      C1901   1.480       .  S
C1759      O1774   1.261       .  A
C1759      O1761   1.261       .  A
Tb1760     O1776   2.341       .  S
Tb1760     O1771   2.339       .  S
Tb1760     O1764   2.360       .  S
Tb1760     O1781   2.343       .  S
O1761     Tb1765   2.355       .  S
O1762      C1773   1.263       .  A
C1763      C1789   1.475       .  S
C1763      O1768   1.264       .  A
C1763      O1784   1.265       .  A
O1764      C1780   1.264       .  A
Tb1765     O1769   2.346       .  S
Tb1765     O1774   2.348       .  S
Tb1765     O1768   2.334       .  S
Tb1765     O1777   2.365       .  S
O1769      C1779   1.271       .  A
C1770      C1887   1.475       .  S
C1770      O1783   1.265       .  A
C1772      O1781   1.261       .  A
C1773      C1814   1.483       .  S
C1773      O1775   1.259       .  A
O1777      C1778   1.277       .  A
C1780      C1870   1.475       .  S
C1785      C1786   1.408       .  A
C1785      C1790   1.405       .  A
C1785      H1792   1.084       .  S
C1786      C1787   1.414       .  A
C1787      C1788   1.394       .  A
C1787      N1794   1.433       .  S
C1788      C1789   1.401       .  A
C1788      H1793   1.083       .  S
C1789      C1790   1.409       .  A
C1790      N1791   1.432       .  S
N1791      H1795   1.045       .  S
N1791      H1796   1.046       .  S
N1794      H1797   1.046       .  S
N1794      H1798   1.044       .  S
C1799      C1800   1.402       .  A
C1799      C1804   1.397       .  A
C1799      H1806   1.084       .  S
C1800      C1801   1.412       .  A
C1801      C1802   1.405       .  A
C1801      N1808   1.438       .  S
C1802      C1803   1.405       .  A
C1802      H1807   1.084       .  S
C1803      C1804   1.415       .  A
N1805      H1809   1.043       .  S
N1805      H1810   1.046       .  S
N1808      H1811   1.043       .  S
N1808      H1812   1.046       .  S
C1813      C1814   1.403       .  A
C1813      C1818   1.411       .  A
C1813      H1820   1.084       .  S
C1814      C1815   1.411       .  A
C1815      C1816   1.401       .  A
C1815      N1822   1.433       .  S
C1816      C1817   1.403       .  A
C1816      H1821   1.084       .  S
C1817      C1818   1.420       .  A
C1818      N1819   1.438       .  S
N1819      H1823   1.045       .  S
N1819      H1824   1.044       .  S
N1822      H1825   1.046       .  S
N1822      H1826   1.045   1_565  S
C1827      C1828   1.404       .  A
C1827      C1832   1.393       .  A
C1827      H1834   1.084       .  S
C1828      C1829   1.424       .  A
C1829      C1830   1.400       .  A
C1829      N1836   1.433       .  S
C1830      C1831   1.404       .  A
C1830      H1835   1.084       .  S
C1831      C1832   1.419       .  A
C1832      N1833   1.430       .  S
N1833      H1837   1.044       .  S
N1833      H1838   1.045       .  S
N1836      H1839   1.045       .  S
N1836      H1840   1.045       .  S
C1841      C1842   1.407       .  A
C1841      C1846   1.407       .  A
C1841      H1848   1.084       .  S
C1842      C1843   1.410       .  A
C1843      C1844   1.400       .  A
C1843      N1850   1.433       .  S
C1844      C1845   1.402       .  A
C1844      H1849   1.083       .  S
C1845      C1846   1.407       .  A
N1847      H1851   1.046       .  S
N1847      H1852   1.044       .  S
N1850      H1853   1.045       .  S
N1850      H1854   1.046       .  S
C1855      C1856   1.403       .  A
C1855      C1860   1.404       .  A
C1855      H1862   1.084       .  S
C1856      C1857   1.407       .  A
C1857      C1858   1.399       .  A
C1857      N1864   1.438       .  S
C1858      C1859   1.401       .  A
C1859      C1860   1.417       .  A
C1860      N1861   1.439       .  S
N1861      H1865   1.046       .  S
N1861      H1866   1.043       .  S
N1864      H1867   1.046       .  S
C1869      C1870   1.405       .  A
C1869      C1874   1.400       .  A
C1869      H1876   1.084       .  S
C1870      C1871   1.410       .  A
C1871      C1872   1.400       .  A
C1871      N1878   1.433       .  S
C1872      C1873   1.401       .  A
C1872      H1877   1.084       .  S
C1873      C1874   1.413       .  A
C1874      N1875   1.433       .  S
N1875      H1879   1.044       .  S
N1875      H1880   1.046       .  S
C1883      C1884   1.407       .  A
C1883      C1888   1.401       .  A
C1883      H1890   1.083       .  S
C1884      C1885   1.420       .  A
C1885      C1886   1.405       .  A
C1885      N1892   1.438       .  S
C1886      C1887   1.400       .  A
C1886      H1891   1.083       .  S
C1887      C1888   1.409       .  A
C1888      N1889   1.437       .  S
N1889      H1893   1.045       .  S
N1889      H1894   1.046       .  S
N1892      H1895   1.046       .  S
N1892      H1896   1.046       .  S
C1897      C1898   1.404       .  A
C1897      C1902   1.406       .  A
C1897      H1904   1.084       .  S
C1898      C1899   1.415       .  A
C1899      C1900   1.397       .  A
C1899      N1906   1.433       .  S
C1900      C1901   1.404       .  A
C1900      H1905   1.084       .  S
C1901      C1902   1.414       .  A
C1902      N1903   1.439       .  S
N1903      H1907   1.045       .  S
N1903      H1908   1.046       .  S
N1906      H1909   1.046       .  S
N1906      H1910   1.044       .  S
C1911      C1912   1.404       .  A
C1911      C1916   1.407       .  A
C1911      H1918   1.084       .  S
C1913      C1914   1.400       .  A
C1913      N1920   1.433   1_554  S
C1914      H1919   1.084   1_554  S
C1915      C1916   1.413       .  A
C1916      N1917   1.438       .  S
N1917      H1921   1.046       .  S
N1917      H1922   1.045       .  S
N1920      H1923   1.046       .  S
N1920      H1924   1.045       .  S
C1925      C1926   1.406       .  A
C1925      C1930   1.397       .  A
C1925      H1932   1.084       .  S
C1926      C1927   1.410       .  A
C1927      C1928   1.404       .  A
C1928      C1929   1.405       .  A
C1929      C1930   1.410       .  A
C1930      N1931   1.433       .  S
N1931      H1935   1.046       .  S
N1931      H1936   1.046       .  S
N1934      H1938   1.046       .  S
C1939      C1940   1.403       .  A
C1939      C1944   1.405       .  A
C1939      H1946   1.084       .  S
C1940      C1941   1.414       .  A
C1941      C1942   1.400       .  A
C1942      C1943   1.405       .  A
C1942      H1947   1.084       .  S
C1943      C1944   1.412       .  A
C1944      N1945   1.438       .  S
N1945      H1949   1.045       .  S
N1945      H1950   1.046       .  S
N1948      H1951   1.044       .  S
N1948      H1952   1.045       .  S
