geometry optimzed in LAMMPS
_audit_creation_date              2020-12-01 
_audit_creation_method            'lammps2cif' 
_symmetry_space_group_name_H-M    'P1' 
_symmetry_Int_Tables_number       1 
_symmetry_cell_setting            triclinic 
loop_ 
_symmetry_equiv_pos_as_xyz 
  x,y,z 
_cell_length_a                    41.01080593 
_cell_length_b                    43.35051763472527 
_cell_length_c                    38.30361690766244 
_cell_angle_alpha                 88.57643814540272 
_cell_angle_beta                  92.69437956891775 
_cell_angle_gamma                 90.00149338641772 
loop_ 
_atom_site_label 
_atom_site_type_symbol 
_atom_site_fract_x 
_atom_site_fract_y 
_atom_site_fract_z 
_atom_site_charge 
C1          C  0.28584221  0.24439530  0.87707059     0.04100
C2          C  0.28637495  0.24546630  0.84028686    -0.12000
C3          C  0.26829376  0.26795836  0.82048006     0.01600
C4          C  0.24887775  0.28862599  0.83795680    -0.10600
C5          C  0.24813496  0.28793772  0.87453832     0.04100
C6          C  0.26735671  0.26629357  0.89402483    -0.10000
H7          H  0.30110035  0.22888039  0.82753396     0.09700
H8          H  0.23470602  0.30592507  0.82299999     0.07200
H9          H  0.26692231  0.26565173  0.92225862     0.07100
O10         O  0.44122415  0.04737292  0.96422852    -0.77500
C11         C  0.95923585  0.99410378  0.04279114     0.83500
O12         O  0.02910707  0.05315300  0.94108806    -0.78600
O13         O  0.03338755  0.42624558  0.95958371    -0.80100
O14         O  0.39671209  0.46627474  0.91833074    -0.79900
O15         O  0.41909981  0.02152392  0.91948607    -0.78500
Zn16       Zn  0.95600783  0.03884888  0.97963428     1.55700
O17         O  0.42551988  0.43865670  0.95871319    -0.79900
Cd18       Cd  0.44965563  0.98460614  0.91431980     1.59700
Cd19       Cd  0.00497480  0.01368869  0.92214314     1.59600
O20         O  0.46328809  0.98640985  0.86345063    -0.79900
O21         O  0.96329011  0.00589016  0.94698250    -1.90400
Cd22       Cd  0.99204203  0.45007840  0.97240936     1.59900
O23         O  0.99450447  0.01781529  0.86824205    -0.79900
O24         O  0.99393934  0.45896699  0.02518792    -0.78500
C25         C  0.02113470  0.07132794  0.96506515     0.84000
C26         C  0.41919037  0.04424836  0.93985827     0.83700
O27         O  0.95316972  0.02075053  0.02896025    -0.77500
C28         C  0.40074342  0.44203221  0.93757101     0.84500
O29         O  0.99470386  0.06773120  0.98089903    -0.77600
C30         C  0.96866810  0.01220826  0.84946420     0.84600
C31         C  0.05716751  0.43235361  0.94028173     0.84900
O32         O  0.05933904  0.45798513  0.92333383    -0.80000
C33         C  0.25823723  0.26282783  0.02693900     0.04100
C34         C  0.25735525  0.26341179  0.06341849    -0.12000
C35         C  0.23357193  0.24687794  0.08131104     0.01600
C36         C  0.21035104  0.22969426  0.06194483    -0.10600
C37         C  0.21079680  0.22856933  0.02516845     0.04100
C38         C  0.23496994  0.24533179  0.00782270    -0.10000
H39         H  0.27494345  0.27760181  0.07751875     0.09700
H40         H  0.19268053  0.21627629  0.07592452     0.07200
H41         H  0.23605290  0.24431241  0.97966026     0.07100
C42         C  0.50308409  0.02373769  0.37579933     0.04100
C43         C  0.49540399  0.02544834  0.33965245    -0.12000
C44         C  0.99030520  0.00796632  0.31389519     0.01600
C45         C  0.03129539  0.48480921  0.32662948    -0.10600
C46         C  0.03778538  0.48100608  0.36284066     0.04100
C47         C  0.00891520  0.99906415  0.38519975    -0.10000
H48         H  0.48004048  0.04408134  0.32898206     0.09700
H49         H  0.04185121  0.46873186  0.30912776     0.07200
H50         H  0.01537790  0.99571284  0.41273715     0.07100
O51         O  0.31083566  0.18645815  0.47145547    -0.77500
C52         C  0.27809688  0.24959539  0.55009367     0.83500
O53         O  0.20569740  0.22271993  0.42711215    -0.78600
O54         O  0.23915631  0.32045963  0.47276168    -0.80100
O55         O  0.34908737  0.28818289  0.43992387    -0.79900
O56         O  0.34291870  0.21128361  0.43496317    -0.78500
Zn57       Zn  0.27437331  0.21629567  0.48047054     1.55700
O58         O  0.32079949  0.31538913  0.47697164    -0.79900
Cd59       Cd  0.31782089  0.25260367  0.42587414     1.59700
Cd60       Cd  0.23778862  0.25894126  0.41922740     1.59600
O61         O  0.30632901  0.25603511  0.37265932    -0.79900
O62         O  0.27695257  0.25423071  0.45251863    -1.90400
Cd63       Cd  0.27833701  0.29071475  0.48364115     1.59900
O64         O  0.25191465  0.25918908  0.36768715    -0.79900
O65         O  0.27845756  0.27649925  0.53583202    -0.78500
C66         C  0.20741817  0.19948941  0.44816636     0.84000
C67         C  0.33613213  0.18747743  0.45342845     0.83700
O68         O  0.27662124  0.22532570  0.53201505    -0.77500
C69         C  0.34623904  0.31107254  0.45979263     0.84500
O70         O  0.23202711  0.19474197  0.46917554    -0.77600
C71         C  0.27974015  0.25803538  0.35409941     0.84600
C72         C  0.21567773  0.32079503  0.44972277     0.84900
O73         O  0.21212262  0.29951343  0.42739880    -0.80000
C74         C  0.50065578  0.49305431  0.52966894     0.04100
C75         C  0.50198371  0.49411464  0.56636510    -0.12000
C76         C  0.01510129  0.51376489  0.57552001     0.01600
C77         C  0.04452501  0.03215863  0.56522204    -0.10600
C78         C  0.04482787  0.03050556  0.52862798     0.04100
C79         C  0.02299168  0.01087734  0.51090670    -0.10000
H80         H  0.48664964  0.47875162  0.58107611     0.09700
H81         H  0.06182310  0.04692108  0.57905467     0.07200
H82         H  0.02325976  0.00945019  0.48269297     0.07100
C83         C  0.15291327  0.13171204  0.47401840     0.19700
C84         C  0.15640216  0.09960665  0.47789475    -0.18400
C85         C  0.13077183  0.08154372  0.48982348    -0.10700
C86         C  0.10146239  0.09549123  0.49877266     0.21900
C87         C  0.09784284  0.12751092  0.49448128    -0.20000
C88         C  0.12319251  0.14548087  0.48191396    -0.10900
C89         C  0.07576179  0.07771711  0.51604216    -0.15000
C90         C  0.06884682  0.04824485  0.50880398    -0.28900
C91         C  0.18171094  0.15070768  0.46604189    -0.03200
C92         C  0.17937657  0.17833060  0.44938118    -0.39700
H93         H  0.17928939  0.08860701  0.47252509     0.13100
H94         H  0.13453254  0.05695451  0.49371603     0.12700
H95         H  0.07560955  0.13872389  0.50168119     0.12100
H96         H  0.12007706  0.17026956  0.48022351     0.12400
H97         H  0.06175167  0.08943562  0.53515066     0.15100
H98         H  0.08024249  0.03718590  0.48733527     0.13900
H99         H  0.20553219  0.14211533  0.47540824     0.11600
H100        H  0.15610140  0.18619477  0.43770333     0.13600
C101        C  0.44772911  0.42250252  0.50711044     0.19700
C102        C  0.45315828  0.39056002  0.50819743    -0.18400
C103        C  0.42857519  0.37031868  0.49688209    -0.10700
C104        C  0.39784935  0.38174516  0.48492805     0.21900
C105        C  0.39249553  0.41371317  0.48365468    -0.20000
C106        C  0.41730578  0.43398808  0.49430157    -0.10900
C107        C  0.37012312  0.36080343  0.47703325    -0.15000
C108        C  0.37381058  0.33269568  0.46372848    -0.28900
C109        C  0.47282874  0.44306466  0.52283907    -0.03200
C110        C  0.47771788  0.47207977  0.51111707    -0.39700
H111        H  0.47627263  0.38124297  0.51846890     0.13100
H112        H  0.43317067  0.34574313  0.49909019     0.12700
H113        H  0.36885196  0.42296629  0.47501785     0.12100
H114        H  0.41214885  0.45848606  0.49404566     0.12400
H115        H  0.34580868  0.36886524  0.48241063     0.15100
H116        H  0.39756242  0.32526911  0.45572485     0.13900
H117        H  0.48795217  0.43391297  0.54476605     0.11600
H118        H  0.46517063  0.48045865  0.48711645     0.13600
C119        C  0.14193132  0.37477330  0.42513082     0.19700
C120        C  0.11103099  0.37023112  0.40868780    -0.18400
C121        C  0.08912451  0.39479002  0.40306062    -0.10700
C122        C  0.09773851  0.42474879  0.41340402     0.21900
C123        C  0.12806823  0.42915771  0.43109963    -0.20000
C124        C  0.15007815  0.40455603  0.43669626    -0.10900
C125        C  0.07611736  0.45184370  0.40487156    -0.15000
C126        C  0.05716205  0.45349303  0.37518447    -0.28900
C127        C  0.16531412  0.34828328  0.42771122    -0.03200
C128        C  0.19239423  0.34704032  0.44907906    -0.39700
H129        H  0.10391492  0.34758399  0.39973665     0.13100
H130        H  0.06553398  0.39026156  0.39036739     0.12700
H131        H  0.13526879  0.45196471  0.43944850     0.12100
H132        H  0.17374185  0.40935074  0.44895864     0.12400
H133        H  0.07824442  0.47178782  0.42142662     0.15100
H134        H  0.05786554  0.43452055  0.35723924     0.13900
H135        H  0.15975285  0.32871091  0.41125758     0.11600
H136        H  0.19779038  0.36551492  0.46702560     0.13600
C137        C  0.40533765  0.13074246  0.43330543     0.19700
C138        C  0.43860504  0.13327816  0.42636752    -0.18400
C139        C  0.45650275  0.10735805  0.41729839    -0.10700
C140        C  0.44122278  0.07843888  0.41444207     0.21900
C141        C  0.40836618  0.07566956  0.42262679    -0.20000
C142        C  0.39061487  0.10142309  0.43213710    -0.10900
C143        C  0.45697723  0.05220744  0.39763951    -0.15000
C144        C  0.48932245  0.04690104  0.39880358    -0.28900
C145        C  0.38594761  0.15934826  0.43777804    -0.03200
C146        C  0.35719452  0.15973850  0.45341497    -0.39700
H147        H  0.45048760  0.15559204  0.42676283     0.13100
H148        H  0.48161755  0.11040295  0.41039956     0.12700
H149        H  0.39597858  0.05369784  0.42018591     0.12100
H150        H  0.36492222  0.09846237  0.43642103     0.12400
H151        H  0.44112460  0.03702640  0.38232882     0.15100
H152        H  0.50572704  0.05978153  0.41608945     0.13900
H153        H  0.39540665  0.18079367  0.42699851     0.11600
H154        H  0.34829391  0.13898715  0.46619407     0.13600
C155        C  0.25673095  0.26038275  0.25456514     0.19700
C156        C  0.22716289  0.25809390  0.23476379    -0.18400
C157        C  0.22673800  0.25625005  0.19831315    -0.10700
C158        C  0.25609562  0.25653277  0.18065528     0.21900
C159        C  0.28562229  0.25950118  0.20038718    -0.20000
C160        C  0.28603780  0.26149303  0.23679261    -0.10900
C161        C  0.25732441  0.25488089  0.14186989    -0.15000
C162        C  0.23175555  0.24759128  0.12010264    -0.28900
C163        C  0.25561289  0.26156729  0.29342427    -0.03200
C164        C  0.28193359  0.25848746  0.31565939    -0.39700
H165        H  0.20416912  0.25760654  0.24758444     0.13100
H166        H  0.20329427  0.25496011  0.18438145     0.12700
H167        H  0.30860573  0.26031702  0.18755859     0.12100
H168        H  0.30943967  0.26414766  0.25049859     0.12400
H169        H  0.28092140  0.25908141  0.13105522     0.15100
H170        H  0.20873099  0.24089902  0.13075930     0.13900
H171        H  0.23175761  0.26407050  0.30427205     0.11600
H172        H  0.30604131  0.25530957  0.30592547     0.13600
C173        C  0.30527219  0.32150121  0.97105088     0.19700
C174        C  0.29613241  0.35074676  0.95735979    -0.18400
C175        C  0.31979080  0.37297943  0.94983314    -0.10700
C176        C  0.35326980  0.36625098  0.95551268     0.21900
C177        C  0.36234251  0.33641415  0.96740136    -0.20000
C178        C  0.33870985  0.31423145  0.97488409    -0.10900
C179        C  0.37926937  0.39016623  0.95266904    -0.15000
C180        C  0.37533058  0.41769849  0.93580825    -0.28900
C181        C  0.27956073  0.29983184  0.98293328    -0.03200
C182        C  0.28483943  0.28001426  0.01019407    -0.39700
H183        H  0.27057044  0.35696300  0.95408491     0.13100
H184        H  0.31156492  0.39571373  0.94120782     0.12700
H185        H  0.38788696  0.33044373  0.97176644     0.12100
H186        H  0.34672944  0.29159805  0.98425559     0.12400
H187        H  0.40271838  0.38502130  0.96595015     0.15100
H188        H  0.35288759  0.42296744  0.92075171     0.13900
H189        H  0.25481985  0.30268683  0.97194889     0.11600
H190        H  0.30856976  0.27958881  0.02402411     0.13600
C191        C  0.13582547  0.17722666  0.99883053     0.19700
C192        C  0.10268138  0.17749729  0.00648116    -0.18400
C193        C  0.08130423  0.15468154  0.99398587    -0.10700
C194        C  0.09266385  0.13041538  0.97392023     0.21900
C195        C  0.12566284  0.13064832  0.96540032    -0.20000
C196        C  0.14705626  0.15366610  0.97775500    -0.10900
C197        C  0.07106240  0.10453692  0.96165040    -0.15000
C198        C  0.04242525  0.09744018  0.97587004    -0.28900
C199        C  0.15806712  0.20029063  0.01583156    -0.03200
C200        C  0.18788077  0.20812823  0.00488692    -0.39700
H201        H  0.09326658  0.19537832  0.02253707     0.13100
H202        H  0.05596798  0.15637647  0.00023627     0.12700
H203        H  0.13516193  0.11246848  0.94984172     0.12100
H204        H  0.17250874  0.15222946  0.97175713     0.12400
H205        H  0.07965431  0.09010279  0.94118665     0.15100
H206        H  0.03408263  0.11071808  0.99732170     0.13900
H207        H  0.14913167  0.21144919  0.03858720     0.11600
H208        H  0.19588310  0.19947572  0.98035660     0.13600
C209        C  0.00787149  0.50926726  0.74917306     0.19700
C210        C  0.03546129  0.50584852  0.72926668    -0.18400
C211        C  0.03249603  0.50643799  0.69265405    -0.10700
C212        C  0.49880021  0.01379224  0.67772296     0.21900
C213        C  0.47214967  0.01829884  0.69862062    -0.20000
C214        C  0.47607445  0.01658356  0.73502753    -0.10900
C215        C  0.49301438  0.01369498  0.63916353    -0.15000
C216        C  0.02337200  0.01669411  0.62289276    -0.28900
C217        C  0.01150498  0.50702841  0.78805332    -0.03200
C218        C  0.96914689  0.01312967  0.81096516    -0.39700
H219        H  0.05924992  0.50187425  0.74209199     0.13100
H220        H  0.05411436  0.50247146  0.67828031     0.12700
H221        H  0.44814766  0.02313391  0.68670994     0.12100
H222        H  0.45499722  0.02082590  0.75017998     0.12400
H223        H  0.46843722  0.00858673  0.62915669     0.15100
H224        H  0.04439724  0.52299830  0.62398119     0.13900
H225        H  0.03520452  0.51198043  0.80054057     0.11600
H226        H  0.46367914  0.98990386  0.79755195     0.13600
C227        C  0.48893025  0.99540380  0.14336488     0.19700
C228        C  0.49625881  0.02123952  0.16367471    -0.18400
C229        C  0.50037422  0.01836328  0.20011765    -0.10700
C230        C  0.99814568  0.49634490  0.21360929     0.21900
C231        C  0.98407008  0.47227618  0.19430168    -0.20000
C232        C  0.97954701  0.47504635  0.15797847    -0.10900
C233        C  0.00417524  0.49159038  0.25192023    -0.15000
C234        C  0.98127188  0.01440758  0.27645883    -0.28900
C235        C  0.48580216  0.99938489  0.10453365    -0.03200
C236        C  0.95923257  0.98930231  0.08102523    -0.39700
H237        H  0.49950568  0.04367215  0.15122479     0.13100
H238        H  0.50718285  0.03866402  0.21457309     0.12700
H239        H  0.97655943  0.45118972  0.20739716     0.12100
H240        H  0.96814326  0.45615435  0.14409657     0.12400
H241        H  0.00546075  0.46792749  0.26189049     0.15100
H242        H  0.49218992  0.03045503  0.26947604     0.13900
H243        H  0.48193757  0.02257513  0.09369167     0.11600
H244        H  0.99219553  0.45747477  0.09200115     0.13600
C245        C  0.28510420  0.26622439  0.64890209     0.19700
C246        C  0.27591313  0.29097451  0.66923615    -0.18400
C247        C  0.27738512  0.28833226  0.70574590    -0.10700
C248        C  0.28830272  0.26080241  0.72273320     0.21900
C249        C  0.29885355  0.23656097  0.70247002    -0.20000
C250        C  0.29719152  0.23912533  0.66595807    -0.10900
C251        C  0.28957545  0.25683783  0.76143830    -0.15000
C252        C  0.26835474  0.27094483  0.78162307    -0.28900
C253        C  0.28266297  0.26983649  0.61013537    -0.03200
C254        C  0.27982938  0.24582284  0.58858005    -0.39700
H255        H  0.26724312  0.31235359  0.65680774     0.13100
H256        H  0.27033291  0.30800311  0.72052284     0.12700
H257        H  0.30802729  0.21538362  0.71494281     0.12100
H258        H  0.30582027  0.21998906  0.65132894     0.12400
H259        H  0.30780105  0.24111292  0.77298891     0.15100
H260        H  0.24979933  0.28584171  0.76902490     0.13900
H261        H  0.28223889  0.29316735  0.59901752     0.11600
H262        H  0.27867749  0.22243529  0.59923803     0.13600
C263        C  0.32806475  0.16770286  0.90694099     0.19700
C264        C  0.31885885  0.13669144  0.90415237    -0.18400
C265        C  0.33882648  0.11315095  0.91875215    -0.10700
C266        C  0.36914623  0.12005943  0.93561034     0.21900
C267        C  0.37770469  0.15120768  0.93966712    -0.20000
C268        C  0.35740985  0.17483856  0.92547313    -0.10900
C269        C  0.39300965  0.09551021  0.94754266    -0.15000
C270        C  0.39305479  0.06742100  0.93327856    -0.28900
C271        C  0.30796019  0.19165016  0.88767549    -0.03200
C272        C  0.30512125  0.22092032  0.89812982    -0.39700
H273        H  0.29623463  0.13062531  0.89025756     0.13100
H274        H  0.33045666  0.08962722  0.91629627     0.12700
H275        H  0.40076002  0.15726168  0.95267146     0.12100
H276        H  0.36543490  0.19852492  0.92765693     0.12400
H277        H  0.41278329  0.10159919  0.96595385     0.15100
H278        H  0.37475780  0.06179121  0.91311090     0.13900
H279        H  0.29420332  0.18457220  0.86428198     0.11600
H280        H  0.31593818  0.22751372  0.92327682     0.13600
C281        C  0.13271716  0.38699214  0.91383299     0.19700
C282        C  0.16650718  0.39225663  0.91367851    -0.18400
C283        C  0.18781530  0.36873929  0.90470026    -0.10700
C284        C  0.17548641  0.33980069  0.89482772     0.21900
C285        C  0.14175922  0.33460447  0.89491856    -0.20000
C286        C  0.12059844  0.35779514  0.90463405    -0.10900
C287        C  0.19657576  0.31588011  0.88055054    -0.15000
C288        C  0.22753247  0.31032463  0.89215583    -0.28900
C289        C  0.11021637  0.41272598  0.92099863    -0.03200
C290        C  0.08191490  0.40799461  0.93670631    -0.39700
H291        H  0.17636207  0.41468810  0.92017034     0.13100
H292        H  0.21367454  0.37361734  0.90399519     0.12700
H293        H  0.13169653  0.31265625  0.88684703     0.12100
H294        H  0.09463034  0.35321367  0.90347746     0.12400
H295        H  0.18594371  0.30188886  0.85977758     0.15100
H296        H  0.23765268  0.32199028  0.91489461     0.13900
H297        H  0.11705360  0.43598613  0.91304242     0.11600
H298        H  0.07621583  0.38509743  0.94685040     0.13600
C299        C  0.26562252  0.76660305  0.87726710     0.04100
C300        C  0.26439805  0.76478122  0.84060362    -0.12000
C301        C  0.24472673  0.78519990  0.81960713     0.01600
C302        C  0.22592985  0.80716274  0.83604700    -0.10600
C303        C  0.22679081  0.80924026  0.87266762     0.04100
C304        C  0.24749969  0.78945505  0.89305903    -0.10000
H305        H  0.27953031  0.74784027  0.82895038     0.09700
H306        H  0.21089370  0.82312644  0.82013394     0.07200
H307        H  0.24840321  0.79097533  0.92126475     0.07100
O308        O  0.41519256  0.56630893  0.96580148    -0.77500
C309        C  0.98776445  0.48312396  0.04198407     0.83500
O310        O  0.05444061  0.53547290  0.93420905    -0.78600
O311        O  0.00761480  0.94121412  0.95899138    -0.80100
O312        O  0.42278115  0.94479649  0.92250113    -0.79900
O313        O  0.39456264  0.54364506  0.91806859    -0.78500
Zn314      Zn  0.98242148  0.52409883  0.97587561     1.55700
O315        O  0.45262407  0.91922216  0.96369438    -0.79900
Cd316      Cd  0.42459895  0.50605495  0.91238261     1.59700
Cd317      Cd  0.02868872  0.49640529  0.91713071     1.59600
O318        O  0.44079862  0.50823961  0.86219029    -0.79900
O319        O  0.98841198  0.48973759  0.94483226    -1.90400
Cd320      Cd  0.96586715  0.96466067  0.97148055     1.59900
O321        O  0.01571710  0.50115293  0.86362549    -0.79900
O322        O  0.96591256  0.97091989  0.02460318    -0.78500
C323        C  0.04725948  0.55482940  0.95727668     0.84000
C324        C  0.39414237  0.56505698  0.94021840     0.83700
O325        O  0.98125882  0.50896654  0.02648203    -0.77500
C326        C  0.42741080  0.92147967  0.94298343     0.84500
O327        O  0.02108854  0.55256200  0.97378451    -0.77600
C328        C  0.98901332  0.49549192  0.84637791     0.84600
C329        C  0.03287933  0.94884611  0.94265727     0.84900
O330        O  0.03623457  0.97573369  0.92887971    -0.80000
C331        C  0.28011760  0.74452233  0.03218035     0.04100
C332        C  0.27442208  0.74584172  0.06787238    -0.12000
C333        C  0.24919620  0.72871920  0.08251124     0.01600
C334        C  0.22920805  0.71046975  0.06070238    -0.10600
C335        C  0.23453856  0.70865540  0.02468789     0.04100
C336        C  0.26029759  0.72565085  0.01060895    -0.10000
H337        H  0.28940740  0.76094355  0.08400317     0.09700
H338        H  0.21021185  0.69678589  0.07222823     0.07200
H339        H  0.26504099  0.72397904  0.98311768     0.07100
C340        C  0.49421365  0.52904380  0.37639596     0.04100
C341        C  0.48735614  0.53365845  0.34033592    -0.12000
C342        C  0.01236956  0.50961606  0.31284851     0.01600
C343        C  0.01293958  0.98494470  0.32456142    -0.10600
C344        C  0.02253296  0.98023326  0.36002863     0.04100
C345        C  0.02471376  0.50238739  0.38565128    -0.10000
H346        H  0.47195875  0.55280786  0.33116611     0.09700
H347        H  0.02387723  0.97105407  0.30509354     0.07200
H348        H  0.02871278  0.49943604  0.41367279     0.07100
O349        O  0.29693971  0.68574828  0.47257550    -0.77500
C350        C  0.25970152  0.74874483  0.54953735     0.83500
O351        O  0.19293396  0.72544812  0.42450873    -0.78600
O352        O  0.22660211  0.82052034  0.47084913    -0.80100
O353        O  0.33703665  0.78825939  0.44282421    -0.79900
O354        O  0.33181189  0.71168085  0.44017627    -0.78500
Zn355      Zn  0.25986996  0.71572398  0.47967231     1.55700
O356        O  0.30782739  0.81487337  0.47955909    -0.79900
Cd357      Cd  0.30672160  0.75234563  0.42854529     1.59700
Cd358      Cd  0.22742452  0.75943212  0.41707428     1.59600
O359        O  0.29801635  0.75396990  0.37497683    -0.79900
O360        O  0.26457016  0.75399163  0.45264922    -1.90400
Cd361      Cd  0.26487073  0.79032566  0.48384464     1.59900
O362        O  0.24375873  0.75591519  0.36673985    -0.79900
O363        O  0.26162197  0.77565462  0.53550595    -0.78500
C364        C  0.19329110  0.70147041  0.44438955     0.84000
C365        C  0.32373956  0.68741405  0.45709014     0.83700
O366        O  0.25906247  0.72450394  0.53134667    -0.77500
C367        C  0.33362545  0.81089613  0.46285430     0.84500
O368        O  0.21740570  0.69494888  0.46552646    -0.77600
C369        C  0.27230804  0.75430667  0.35495825     0.84600
C370        C  0.20539284  0.82198182  0.44544975     0.84900
O371        O  0.20353690  0.80139027  0.42216786    -0.80000
C372        C  0.48557798  0.99580988  0.52595427     0.04100
C373        C  0.48896695  0.99778931  0.56255963    -0.12000
C374        C  0.02238274  0.01459709  0.58417079     0.01600
C375        C  0.03428855  0.53200096  0.55384954    -0.10600
C376        C  0.03022543  0.53080754  0.51723005     0.04100
C377        C  0.00718080  0.51066380  0.50222401    -0.10000
H378        H  0.47506380  0.98240850  0.57882944     0.09700
H379        H  0.05266295  0.54699912  0.56556712     0.07200
H380        H  0.00416372  0.50949312  0.47401392     0.07100
C381        C  0.13573461  0.63390588  0.46240351     0.19700
C382        C  0.13738911  0.60165522  0.46096681    -0.18400
C383        C  0.11133185  0.58342063  0.47152206    -0.10700
C384        C  0.08343448  0.59726023  0.48437007     0.21900
C385        C  0.08141198  0.62952059  0.48477072    -0.20000
C386        C  0.10717917  0.64773588  0.47363634    -0.10900
C387        C  0.05846222  0.57889850  0.50216475    -0.15000
C388        C  0.05116760  0.54954961  0.49461498    -0.28900
C389        C  0.16538569  0.65241354  0.45658890    -0.03200
C390        C  0.16419625  0.68156811  0.44391874    -0.39700
H391        H  0.15933488  0.59054743  0.45280557     0.13100
H392        H  0.11398253  0.55857587  0.47168285     0.12700
H393        H  0.06033745  0.64063289  0.49501459     0.12100
H394        H  0.10548839  0.67251368  0.47591379     0.12400
H395        H  0.04617114  0.58979052  0.52318774     0.15100
H396        H  0.06060794  0.53908081  0.47167079     0.13900
H397        H  0.18888462  0.64199139  0.46402898     0.11600
H398        H  0.14116666  0.69141645  0.43387559     0.13600
C399        C  0.43342760  0.92390985  0.50791312     0.19700
C400        C  0.43867354  0.89203357  0.51174809    -0.18400
C401        C  0.41432976  0.87129790  0.50114564    -0.10700
C402        C  0.38408563  0.88222567  0.48710530     0.21900
C403        C  0.37892617  0.91407887  0.48304479    -0.20000
C404        C  0.40346359  0.93479963  0.49305846    -0.10900
C405        C  0.35663230  0.86100674  0.47954806    -0.15000
C406        C  0.36093241  0.83263363  0.46734161    -0.28900
C407        C  0.45826960  0.94527940  0.52252908    -0.03200
C408        C  0.46259880  0.97385093  0.50926741    -0.39700
H409        H  0.46142772  0.88319970  0.52355387     0.13100
H410        H  0.41867398  0.84682888  0.50540096     0.12700
H411        H  0.35563844  0.92293224  0.47267711     0.12100
H412        H  0.39835741  0.95927087  0.49063279     0.12400
H413        H  0.33210287  0.86914208  0.48384513     0.15100
H414        H  0.38498910  0.82521203  0.46025128     0.13900
H415        H  0.47368474  0.93711635  0.54471900     0.11600
H416        H  0.44980981  0.98106184  0.48494020     0.13600
C417        C  0.13346119  0.87648884  0.41593012     0.19700
C418        C  0.10596504  0.87288508  0.39317503    -0.18400
C419        C  0.08270959  0.89633167  0.38829459    -0.10700
C420        C  0.08655828  0.92439946  0.40572275     0.21900
C421        C  0.11353570  0.92780548  0.42925907    -0.20000
C422        C  0.13689620  0.90425094  0.43420032    -0.10900
C423        C  0.06292374  0.95037371  0.39963701    -0.15000
C424        C  0.04600041  0.95464904  0.36885937    -0.28900
C425        C  0.15790594  0.85090014  0.41883725    -0.03200
C426        C  0.18234877  0.84840573  0.44352760    -0.39700
H427        H  0.10239871  0.85172804  0.37901037     0.13100
H428        H  0.06164001  0.89221055  0.37098831     0.12700
H429        H  0.11697318  0.94907417  0.44323608     0.12100
H430        H  0.15775780  0.90833075  0.45174084     0.12400
H431        H  0.06106991  0.96707912  0.42007750     0.15100
H432        H  0.05055173  0.93906250  0.34787127     0.13900
H433        H  0.15511705  0.83270350  0.39989722     0.11600
H434        H  0.18533900  0.86552184  0.46357393     0.13600
C435        C  0.39432997  0.63208209  0.43865564     0.19700
C436        C  0.42834866  0.63420235  0.43604956    -0.18400
C437        C  0.44641794  0.60897438  0.42523589    -0.10700
C438        C  0.43057972  0.58132352  0.41622640     0.21900
C439        C  0.39681095  0.57892418  0.41991224    -0.20000
C440        C  0.37887590  0.60387814  0.43118587    -0.10900
C441        C  0.44715841  0.55668025  0.39753944    -0.15000
C442        C  0.47918847  0.54987806  0.40129439    -0.28900
C443        C  0.37511044  0.66041817  0.44477682    -0.03200
C444        C  0.34505251  0.65985497  0.45760375    -0.39700
H445        H  0.44079044  0.65577542  0.44119585     0.13100
H446        H  0.47231122  0.61180624  0.42182950     0.12700
H447        H  0.38400154  0.55802969  0.41258479     0.12100
H448        H  0.35265981  0.60149725  0.43184823     0.12400
H449        H  0.43220808  0.54404563  0.37854603     0.15100
H450        H  0.49439538  0.55990708  0.42202249     0.13900
H451        H  0.38559321  0.68243167  0.43703010     0.11600
H452        H  0.33509141  0.63834712  0.46753242     0.13600
C453        C  0.25573750  0.74328494  0.25575329     0.19700
C454        C  0.22828036  0.74619385  0.23256353    -0.18400
C455        C  0.23120389  0.74336510  0.19650011    -0.10700
C456        C  0.26176796  0.73721813  0.18291645     0.21900
C457        C  0.28907660  0.73386282  0.20613435    -0.20000
C458        C  0.28614799  0.73654698  0.24208922    -0.10900
C459        C  0.26678211  0.73550187  0.14484013    -0.15000
C460        C  0.24293858  0.72987356  0.12041327    -0.28900
C461        C  0.25156756  0.74686437  0.29387268    -0.03200
C462        C  0.27649573  0.75231100  0.31704171    -0.39700
H463        H  0.20453464  0.75118459  0.24234080     0.13100
H464        H  0.20965781  0.74675537  0.17947093     0.12700
H465        H  0.31287755  0.72900595  0.19640387     0.12100
H466        H  0.30781010  0.73294024  0.25883944     0.12400
H467        H  0.29173080  0.73782349  0.13685783     0.15100
H468        H  0.21847409  0.72451349  0.12830295     0.13900
H469        H  0.22695296  0.74526691  0.30313488     0.11600
H470        H  0.30118447  0.75482188  0.30845780     0.13600
C471        C  0.33243840  0.80082492  0.97891462     0.19700
C472        C  0.32415919  0.82738644  0.95874105    -0.18400
C473        C  0.34755786  0.85020136  0.95249123    -0.10700
C474        C  0.38000428  0.84662040  0.96591684     0.21900
C475        C  0.38849645  0.81924629  0.98452202    -0.20000
C476        C  0.36513797  0.79655328  0.99079677    -0.10900
C477        C  0.40537845  0.87116159  0.96312886    -0.15000
C478        C  0.40229588  0.89688866  0.94275538    -0.28900
C479        C  0.30629701  0.77880814  0.98860826    -0.03200
C480        C  0.30782629  0.76261674  0.01904032    -0.39700
H481        H  0.29919862  0.83109512  0.94900240     0.13100
H482        H  0.33963952  0.87086582  0.93820274     0.12700
H483        H  0.41328413  0.81559686  0.99484597     0.12100
H484        H  0.37274177  0.77585326  0.00532196     0.12400
H485        H  0.42775456  0.86796807  0.97919281     0.15100
H486        H  0.38082755  0.90053089  0.92555252     0.13900
H487        H  0.28381778  0.77849607  0.97251610     0.11600
H488        H  0.32864510  0.76565931  0.03718937     0.13600
C489        C  0.16189369  0.65920265  0.98925945     0.19700
C490        C  0.12794498  0.66192138  0.99102866    -0.18400
C491        C  0.10710585  0.63907196  0.97790584    -0.10700
C492        C  0.11973844  0.61237053  0.96325786     0.21900
C493        C  0.15366443  0.61026844  0.95992272    -0.20000
C494        C  0.17462344  0.63337483  0.97290774    -0.10900
C495        C  0.09816006  0.58628404  0.95205078    -0.15000
C496        C  0.06917476  0.58085523  0.96623856    -0.28900
C497        C  0.18276754  0.68224918  0.00784011    -0.03200
C498        C  0.21445892  0.68772082  0.00212840    -0.39700
H499        H  0.11744096  0.68166440  0.00320460     0.13100
H500        H  0.08111421  0.64245190  0.97958103     0.12700
H501        H  0.16406942  0.59016109  0.94840902     0.12100
H502        H  0.20068520  0.63024023  0.97142335     0.12400
H503        H  0.10701628  0.57035147  0.93318854     0.15100
H504        H  0.06112181  0.59559462  0.98662679     0.13900
H505        H  0.17114891  0.69552043  0.02750796     0.11600
H506        H  0.22589535  0.67705918  0.98045505     0.13600
C507        C  0.99636896  0.01724860  0.75435006     0.19700
C508        C  0.02562697  0.01075059  0.73838090    -0.18400
C509        C  0.02640691  0.00900073  0.70197424    -0.10700
C510        C  0.49916848  0.51413174  0.68063552     0.21900
C511        C  0.46970309  0.52041494  0.69614580    -0.20000
C512        C  0.46854774  0.52281515  0.73233213    -0.10900
C513        C  0.49870669  0.51095434  0.64211682    -0.15000
C514        C  0.02057102  0.51542480  0.61408607    -0.28900
C515        C  0.99629253  0.01795035  0.79321172    -0.03200
C516        C  0.98688422  0.49776358  0.80781415    -0.39700
H517        H  0.04783950  0.00641349  0.75417864     0.13100
H518        H  0.04917766  0.00298197  0.69070135     0.12700
H519        H  0.44744175  0.52374818  0.68012166     0.12100
H520        H  0.44539890  0.52857334  0.74286662     0.12400
H521        H  0.47536811  0.50561418  0.62909675     0.15100
H522        H  0.04597327  0.02450671  0.63566520     0.13900
H523        H  0.01948753  0.02095156  0.80765043     0.11600
H524        H  0.44590813  0.51026509  0.79641287     0.13600
C525        C  0.47056043  0.51025984  0.14276681     0.19700
C526        C  0.46195160  0.53345000  0.16559095    -0.18400
C527        C  0.46860917  0.53003975  0.20172073    -0.10700
C528        C  0.97208191  0.99874000  0.21471696     0.21900
C529        C  0.95847339  0.97511983  0.19437798    -0.20000
C530        C  0.95252628  0.97960086  0.15839506    -0.10900
C531        C  0.98010191  0.99232952  0.25237448    -0.15000
C532        C  0.00631028  0.51480841  0.27460115    -0.28900
C533        C  0.46404690  0.51506387  0.10437725    -0.03200
C534        C  0.98848886  0.48042168  0.08050093    -0.39700
H535        H  0.44981759  0.55421746  0.15544282     0.13100
H536        H  0.46084551  0.54819011  0.21828257     0.12700
H537        H  0.95252047  0.95306224  0.20637798     0.12100
H538        H  0.94159259  0.96096633  0.14368224     0.12400
H539        H  0.98406646  0.96841836  0.26064165     0.15100
H540        H  0.48517098  0.54346093  0.27038593     0.13900
H541        H  0.46071922  0.53859412  0.09439494     0.11600
H542        H  0.96326308  0.96588327  0.09096588     0.13600
C543        C  0.25784411  0.76707147  0.64802849     0.19700
C544        C  0.25213072  0.79406230  0.66631178    -0.18400
C545        C  0.25177266  0.79348357  0.70279767    -0.10700
C546        C  0.25695254  0.76567604  0.72204407     0.21900
C547        C  0.26314366  0.73874227  0.70382576    -0.20000
C548        C  0.26358508  0.73933111  0.66728943    -0.10900
C549        C  0.25759905  0.76405690  0.76100518    -0.15000
C550        C  0.24358668  0.78539680  0.78056705    -0.28900
C551        C  0.25880826  0.76940912  0.60918700    -0.03200
C552        C  0.25826232  0.74508350  0.58793922    -0.39700
H553        H  0.24815560  0.81585332  0.65229049     0.13100
H554        H  0.24819022  0.81506352  0.71562549     0.12700
H555        H  0.26778245  0.71710343  0.71795285     0.12100
H556        H  0.26905092  0.71809820  0.65459511     0.12400
H557        H  0.26935727  0.74403159  0.77350797     0.15100
H558        H  0.22990002  0.80406258  0.76742899     0.13900
H559        H  0.25957987  0.79248612  0.59747900     0.11600
H560        H  0.25643353  0.72176114  0.59850146     0.13600
C561        C  0.30517292  0.69029428  0.91237734     0.19700
C562        C  0.29456641  0.65954973  0.91174170    -0.18400
C563        C  0.31458495  0.63568482  0.92540021    -0.10700
C564        C  0.34614685  0.64194252  0.93945362     0.21900
C565        C  0.35607653  0.67288880  0.94198003    -0.20000
C566        C  0.33585576  0.69689889  0.92849280    -0.10900
C567        C  0.36965299  0.61670181  0.94993636    -0.15000
C568        C  0.36859580  0.58899714  0.93466810    -0.28900
C569        C  0.28483177  0.71405437  0.89301267    -0.03200
C570        C  0.28585157  0.74448345  0.89912076    -0.39700
H571        H  0.27088375  0.65387137  0.89989738     0.13100
H572        H  0.30539005  0.61232632  0.92431670     0.12700
H573        H  0.38012197  0.67841363  0.95298521     0.12100
H574        H  0.34498158  0.72030382  0.92921212     0.12400
H575        H  0.39002308  0.62196701  0.96796780     0.15100
H576        H  0.34981904  0.58445950  0.91455542     0.13900
H577        H  0.26767228  0.70594455  0.87276353     0.11600
H578        H  0.30057591  0.75314545  0.92094397     0.13600
C579        C  0.11025956  0.90621556  0.91660791     0.19700
C580        C  0.14415345  0.91032441  0.92115057    -0.18400
C581        C  0.16582377  0.88803001  0.90982354    -0.10700
C582        C  0.15385666  0.86155340  0.89299469     0.21900
C583        C  0.11999034  0.85761209  0.88835164    -0.20000
C584        C  0.09841059  0.87949996  0.90027520    -0.10900
C585        C  0.17567618  0.83887475  0.87733563    -0.15000
C586        C  0.20617308  0.83209806  0.88982218    -0.28900
C587        C  0.08758289  0.93104288  0.92620577    -0.03200
C588        C  0.05790781  0.92487423  0.93824053    -0.39700
H589        H  0.15384550  0.93095442  0.93317729     0.13100
H590        H  0.19181124  0.89213409  0.91302322     0.12700
H591        H  0.11017312  0.83765638  0.87501943     0.12100
H592        H  0.07245976  0.87605808  0.89543544     0.12400
H593        H  0.16553471  0.82621864  0.85522288     0.15100
H594        H  0.21550786  0.84211339  0.91400018     0.13900
H595        H  0.09531245  0.95485658  0.92277451     0.11600
H596        H  0.05117110  0.90111141  0.94400023     0.13600
C597        C  0.76246801  0.26424134  0.87733238     0.04100
C598        C  0.76172963  0.26365167  0.84057244    -0.12000
C599        C  0.74230856  0.28465844  0.82014219     0.01600
C600        C  0.72356048  0.30631967  0.83709380    -0.10600
C601        C  0.72413789  0.30737640  0.87379692     0.04100
C602        C  0.74430149  0.28674176  0.89371546    -0.10000
H603        H  0.77723523  0.24742530  0.82819412     0.09700
H604        H  0.70877813  0.32278396  0.82158381     0.07200
H605        H  0.74483735  0.28744439  0.92197512     0.07100
O606        O  0.91576564  0.06515130  0.96468025    -0.77500
C607        C  0.48821359  0.97987722  0.04406153     0.83500
O608        O  0.55369461  0.03531032  0.93586173    -0.78600
O609        O  0.50703290  0.44308040  0.95972938    -0.80100
O610        O  0.92254881  0.44631735  0.92110365    -0.79900
O611        O  0.89561867  0.04169113  0.91728428    -0.78500
Zn612      Zn  0.48226278  0.02208450  0.97862949     1.55700
O613        O  0.95185574  0.42149413  0.96335602    -0.79900
Cd614      Cd  0.92535584  0.00395953  0.91272423     1.59700
Cd615      Cd  0.52897741  0.99539819  0.91930540     1.59600
O616        O  0.94159376  0.00546874  0.86272909    -0.79900
O617        O  0.48864920  0.98819095  0.94688788    -1.90400
Cd618      Cd  0.46519411  0.46658481  0.97168137     1.59900
O619        O  0.51605627  0.99943438  0.86567701    -0.79900
O620        O  0.46566131  0.47298269  0.02491779    -0.78500
C621        C  0.54630353  0.05431585  0.95923421     0.84000
C622        C  0.89497134  0.06348892  0.93888129     0.83700
O623        O  0.48160200  0.00608835  0.02936337    -0.77500
C624        C  0.92680774  0.42346904  0.94236564     0.84500
O625        O  0.52050925  0.05116478  0.97626358    -0.77600
C626        C  0.48930003  0.99384612  0.84847987     0.84600
C627        C  0.53241713  0.45029837  0.94340357     0.84900
O628        O  0.53591123  0.47694225  0.92905592    -0.80000
C629        C  0.77690824  0.24768457  0.03219597     0.04100
C630        C  0.77190359  0.24809811  0.06808995    -0.12000
C631        C  0.74709457  0.23052814  0.08285114     0.01600
C632        C  0.72668940  0.21275930  0.06095298    -0.10600
C633        C  0.73113475  0.21190695  0.02467819     0.04100
C634        C  0.75657584  0.22935440  0.01045722    -0.10000
H635        H  0.78712017  0.26292651  0.08430295     0.09700
H636        H  0.70803038  0.19873412  0.07259667     0.07200
H637        H  0.76073456  0.22834110  0.98277989     0.07100
C638        C  0.98572767  0.02180670  0.37477766     0.04100
C639        C  0.97703837  0.02633301  0.33910810    -0.12000
C640        C  0.50757152  0.00367500  0.31713273     0.01600
C641        C  0.52001138  0.48923817  0.32813246    -0.10600
C642        C  0.52767363  0.48438778  0.36400827     0.04100
C643        C  0.52373931  0.00018388  0.38960023    -0.10000
H644        H  0.95994151  0.04446698  0.33086743     0.09700
H645        H  0.53060812  0.47405908  0.30972649     0.07200
H646        H  0.52929134  0.99878657  0.41751247     0.07100
O647        O  0.79364211  0.18338016  0.47189570    -0.77500
C648        C  0.75823852  0.24676517  0.55000494     0.83500
O649        O  0.69192893  0.22532444  0.42300947    -0.78600
O650        O  0.72653641  0.31948649  0.47158220    -0.80100
O651        O  0.83655114  0.28539927  0.44401484    -0.79900
O652        O  0.82939003  0.20829702  0.43965855    -0.78500
Zn653      Zn  0.75799469  0.21453022  0.47971006     1.55700
O654        O  0.80726484  0.31241562  0.48038700    -0.79900
Cd655      Cd  0.80571819  0.25002021  0.42887282     1.59700
Cd656      Cd  0.72662966  0.25920223  0.41701695     1.59600
O657        O  0.79732593  0.25267293  0.37518588    -0.79900
O658        O  0.76349041  0.25261163  0.45279460    -1.90400
Cd659      Cd  0.76406766  0.28852214  0.48451793     1.59900
O660        O  0.74322631  0.25685834  0.36683443    -0.79900
O661        O  0.76036232  0.27372450  0.53615306    -0.78500
C662        C  0.69159889  0.20174799  0.44343599     0.84000
C663        C  0.82034351  0.18414679  0.45620772     0.83700
O664        O  0.75751659  0.22266215  0.53159124    -0.77500
C665        C  0.83313384  0.30816203  0.46391603     0.84500
O666        O  0.71515516  0.19534220  0.46530794    -0.77600
C667        C  0.77170388  0.25447560  0.35508763     0.84600
C668        C  0.70522632  0.32148095  0.44632441     0.84900
O669        O  0.70285939  0.30111241  0.42283826    -0.80000
C670        C  0.98822956  0.49182265  0.52351154     0.04100
C671        C  0.99215850  0.49355114  0.56010472    -0.12000
C672        C  0.52288939  0.51489801  0.58395731     0.01600
C673        C  0.52872266  0.03853079  0.55648371    -0.10600
C674        C  0.52526139  0.03681424  0.51990407     0.04100
C675        C  0.50367116  0.01548171  0.50481410    -0.10000
H676        H  0.97749086  0.47893079  0.57643667     0.09700
H677        H  0.54617401  0.05442737  0.56824370     0.07200
H678        H  0.50126125  0.01392429  0.47659247     0.07100
C679        C  0.63277020  0.13644597  0.46491458     0.19700
C680        C  0.63519254  0.10434288  0.46924112    -0.18400
C681        C  0.60853784  0.08714519  0.47986269    -0.10700
C682        C  0.57917435  0.10194977  0.48696041     0.21900
C683        C  0.57649021  0.13397051  0.48196940    -0.20000
C684        C  0.60297897  0.15112920  0.47069793    -0.10900
C685        C  0.55294952  0.08495797  0.50405001    -0.15000
C686        C  0.54624038  0.05537566  0.49739780    -0.28900
C687        C  0.66268386  0.15433072  0.45898904    -0.03200
C688        C  0.66240335  0.18210959  0.44276697    -0.39700
H689        H  0.65808761  0.09268613  0.46548817     0.13100
H690        H  0.61157606  0.06254917  0.48449373     0.12700
H691        H  0.55421245  0.14580088  0.48787722     0.12100
H692        H  0.60065187  0.17597703  0.46858421     0.12400
H693        H  0.53975015  0.09671431  0.52379000     0.15100
H694        H  0.55696356  0.04427099  0.47553303     0.13900
H695        H  0.68567106  0.14465977  0.46950324     0.11600
H696        H  0.64009102  0.19115257  0.42996966     0.13600
C697        C  0.93347221  0.42124843  0.50691325     0.19700
C698        C  0.93836458  0.38936901  0.51128121    -0.18400
C699        C  0.91370662  0.36873487  0.50145586    -0.10700
C700        C  0.88345604  0.37972256  0.48757287     0.21900
C701        C  0.87849382  0.41161152  0.48320420    -0.20000
C702        C  0.90340205  0.43227101  0.49247251    -0.10900
C703        C  0.85600657  0.35844916  0.48016294    -0.15000
C704        C  0.86041864  0.32989113  0.46842490    -0.28900
C705        C  0.95898013  0.44234578  0.52071345    -0.03200
C706        C  0.96391031  0.47077312  0.50726422    -0.39700
H707        H  0.96116885  0.38043769  0.52285546     0.13100
H708        H  0.91790871  0.34428615  0.50606528     0.12700
H709        H  0.85517350  0.42052618  0.47301138     0.12100
H710        H  0.89860375  0.45678069  0.48969512     0.12400
H711        H  0.83144568  0.36667038  0.48412862     0.15100
H712        H  0.88450812  0.32236617  0.46158953     0.13900
H713        H  0.97474297  0.43388002  0.54248372     0.11600
H714        H  0.95075605  0.47839160  0.48330899     0.13600
C715        C  0.63371442  0.37723133  0.41973693     0.19700
C716        C  0.60301548  0.37310442  0.40272412    -0.18400
C717        C  0.58084596  0.39757220  0.39847610    -0.10700
C718        C  0.58904634  0.42705590  0.41072231     0.21900
C719        C  0.61929707  0.43103262  0.42872863    -0.20000
C720        C  0.64155024  0.40650618  0.43298984    -0.10900
C721        C  0.56700838  0.45413555  0.40397009    -0.15000
C722        C  0.54785980  0.45687146  0.37450420    -0.28900
C723        C  0.65705961  0.35076757  0.42174543    -0.03200
C724        C  0.68285815  0.34838947  0.44477090    -0.39700
H725        H  0.59617245  0.35081994  0.39249201     0.13100
H726        H  0.55733477  0.39332072  0.38547544     0.12700
H727        H  0.62619430  0.45347080  0.43848586     0.12100
H728        H  0.66511192  0.41094329  0.44569483     0.12400
H729        H  0.56887316  0.47321096  0.42180040     0.15100
H730        H  0.54879602  0.43881921  0.35541035     0.13900
H731        H  0.65214218  0.33191636  0.40405882     0.11600
H732        H  0.68734857  0.36605559  0.46396611     0.13600
C733        C  0.88843186  0.12594045  0.43740800     0.19700
C734        C  0.92225023  0.12747070  0.43317393    -0.18400
C735        C  0.93956050  0.10153497  0.42313676    -0.10700
C736        C  0.92319048  0.07362285  0.41660914     0.21900
C737        C  0.88965090  0.07177203  0.42203157    -0.20000
C738        C  0.87243938  0.09753069  0.43251469    -0.10900
C739        C  0.93887893  0.04813172  0.39843407    -0.15000
C740        C  0.97110106  0.04194907  0.40060126    -0.28900
C741        C  0.87006157  0.15496112  0.44274491    -0.03200
C742        C  0.84035330  0.15572110  0.45630654    -0.39700
H743        H  0.93510315  0.14912047  0.43638162     0.13100
H744        H  0.96523702  0.10397984  0.41830277     0.12700
H745        H  0.87641585  0.05066136  0.41661426     0.12100
H746        H  0.84631951  0.09548354  0.43457948     0.12400
H747        H  0.92327990  0.03491288  0.38059481     0.15100
H748        H  0.98700534  0.05273244  0.42019677     0.13900
H749        H  0.88109646  0.17647164  0.43415340     0.11600
H750        H  0.82976343  0.13476991  0.46692865     0.13600
C751        C  0.75424467  0.24759955  0.25568784     0.19700
C752        C  0.72953245  0.23312529  0.23547518    -0.18400
C753        C  0.73259917  0.22931592  0.19959365    -0.10700
C754        C  0.76042628  0.24034582  0.18310293     0.21900
C755        C  0.78496547  0.25503257  0.20334514    -0.20000
C756        C  0.78188473  0.25884595  0.23911928    -0.10900
C757        C  0.76530197  0.23711433  0.14513945    -0.15000
C758        C  0.74135944  0.23110579  0.12091196    -0.28900
C759        C  0.75029433  0.25076199  0.29380333    -0.03200
C760        C  0.77572818  0.25327991  0.31707814    -0.39700
H761        H  0.70797751  0.22429596  0.24761081     0.13100
H762        H  0.71336375  0.21733260  0.18525488     0.12700
H763        H  0.80655064  0.26394568  0.19132987     0.12100
H764        H  0.80100803  0.27101731  0.25346531     0.12400
H765        H  0.78997037  0.24070883  0.13680800     0.15100
H766        H  0.71672010  0.22660062  0.12873490     0.13900
H767        H  0.72572320  0.24926649  0.30319610     0.11600
H768        H  0.80054086  0.25280579  0.30843595     0.13600
C769        C  0.83035269  0.30394004  0.97963919     0.19700
C770        C  0.82270325  0.32996474  0.95827658    -0.18400
C771        C  0.84624015  0.35274240  0.95229106    -0.10700
C772        C  0.87822443  0.34969990  0.96724147     0.21900
C773        C  0.88611172  0.32293237  0.98725890    -0.20000
C774        C  0.86264892  0.30025308  0.99319969    -0.10900
C775        C  0.90376023  0.37411316  0.96432384    -0.15000
C776        C  0.90144692  0.39908384  0.94265816    -0.28900
C777        C  0.80396254  0.28186177  0.98868424    -0.03200
C778        C  0.80467709  0.26598602  0.01933706    -0.39700
H779        H  0.79809526  0.33325916  0.94724940     0.13100
H780        H  0.83877766  0.37294368  0.93688027     0.12700
H781        H  0.91053525  0.31968785  0.99880527     0.12100
H782        H  0.86991682  0.27997799  0.00867995     0.12400
H783        H  0.92565911  0.37140254  0.98125680     0.15100
H784        H  0.88043247  0.40224358  0.92469815     0.13900
H785        H  0.78201217  0.28121570  0.97178742     0.11600
H786        H  0.82505672  0.26933879  0.03797729     0.13600
C787        C  0.65852310  0.16157484  0.99032943     0.19700
C788        C  0.62463410  0.16314614  0.99356736    -0.18400
C789        C  0.60409437  0.13999247  0.98051415    -0.10700
C790        C  0.61699971  0.11408880  0.96445497     0.21900
C791        C  0.65079082  0.11316311  0.95974310    -0.20000
C792        C  0.67142204  0.13656794  0.97264945    -0.10900
C793        C  0.59596295  0.08756662  0.95320599    -0.15000
C794        C  0.56749040  0.08097479  0.96798855    -0.28900
C795        C  0.67934804  0.18479986  0.00879157    -0.03200
C796        C  0.71064807  0.19129941  0.00201499    -0.39700
H797        H  0.61396868  0.18221659  0.00682190     0.13100
H798        H  0.57813654  0.14252233  0.98335441     0.12700
H799        H  0.66141715  0.09370797  0.94716601     0.12100
H800        H  0.69745001  0.13427470  0.97002764     0.12400
H801        H  0.60492084  0.07220621  0.93380731     0.15100
H802        H  0.55933337  0.09518986  0.98878992     0.13900
H803        H  0.66806054  0.19720220  0.02937767     0.11600
H804        H  0.72155689  0.18151951  0.97949911     0.13600
C805        C  0.49685547  0.51817583  0.75410482     0.19700
C806        C  0.52649815  0.51230022  0.73852633    -0.18400
C807        C  0.52769926  0.51018349  0.70216364    -0.10700
C808        C  0.99786051  0.01404197  0.68073430     0.21900
C809        C  0.96872297  0.02085288  0.69665923    -0.20000
C810        C  0.96798202  0.02280803  0.73295786    -0.10900
C811        C  0.99718640  0.01141787  0.64210143    -0.15000
C812        C  0.51617435  0.02071063  0.61654741    -0.28900
C813        C  0.49630065  0.51912852  0.79295308    -0.03200
C814        C  0.48695990  0.99631928  0.80996382    -0.39700
H815        H  0.54869093  0.50873626  0.75459670     0.13100
H816        H  0.55075749  0.50471420  0.69116044     0.12700
H817        H  0.94644378  0.02495861  0.68089382     0.12100
H818        H  0.94514449  0.02898943  0.74393743     0.12400
H819        H  0.97375351  0.00664773  0.62897147     0.15100
H820        H  0.54712054  0.52512758  0.63515341     0.13900
H821        H  0.51939071  0.52198387  0.80762979     0.11600
H822        H  0.94616323  0.00830569  0.79699939     0.13600
C823        C  0.96071731  0.00772709  0.14187117     0.19700
C824        C  0.97351137  0.03164484  0.16235633    -0.18400
C825        C  0.97935114  0.02719802  0.19839567    -0.10700
C826        C  0.48445793  0.50334665  0.21577685     0.21900
C827        C  0.49316960  0.48030721  0.19287535    -0.20000
C828        C  0.48658632  0.48373298  0.15689356    -0.10900
C829        C  0.49200833  0.49795407  0.25389090    -0.15000
C830        C  0.50035393  0.00777370  0.27876803    -0.28900
C831        C  0.95708875  0.01258471  0.10335809    -0.03200
C832        C  0.48952447  0.97600519  0.08256617    -0.39700
H833        H  0.97998985  0.05351733  0.15026293     0.13100
H834        H  0.99055779  0.04570313  0.21310725     0.12700
H835        H  0.50555812  0.45960293  0.20283751     0.12100
H836        H  0.49486410  0.46576275  0.14036457     0.12400
H837        H  0.49813663  0.47446568  0.26213905     0.15100
H838        H  0.97402659  0.03781995  0.26891501     0.13900
H839        H  0.95526850  0.03615674  0.09309935     0.11600
H840        H  0.46485220  0.46803870  0.09139050     0.13600
C841        C  0.75499727  0.26490334  0.64870106     0.19700
C842        C  0.75452802  0.29245969  0.66721999    -0.18400
C843        C  0.75319809  0.29205005  0.70364944    -0.10700
C844        C  0.75204273  0.26388740  0.72263805     0.21900
C845        C  0.75281721  0.23629899  0.70423756    -0.20000
C846        C  0.75418473  0.23668950  0.66775821    -0.10900
C847        C  0.75147627  0.26224468  0.76155450    -0.15000
C848        C  0.74205707  0.28580901  0.78116867    -0.28900
C849        C  0.75674746  0.26711197  0.60983793    -0.03200
C850        C  0.75648143  0.24288576  0.58840311    -0.39700
H851        H  0.75545644  0.31454839  0.65343796     0.13100
H852        H  0.75379864  0.31388473  0.71667815     0.12700
H853        H  0.75233841  0.21425640  0.71817556     0.12100
H854        H  0.75478042  0.21478174  0.65503134     0.12400
H855        H  0.75806684  0.24030749  0.77419463     0.15100
H856        H  0.73267956  0.30676381  0.76828320     0.13900
H857        H  0.75824585  0.29016836  0.59820812     0.11600
H858        H  0.75478624  0.21948442  0.59868435     0.13600
C859        C  0.80408098  0.18769491  0.90901383     0.19700
C860        C  0.79483360  0.15671816  0.90581252    -0.18400
C861        C  0.81489383  0.13298126  0.91972662    -0.10700
C862        C  0.84528921  0.13961974  0.93651095     0.21900
C863        C  0.85385228  0.17070364  0.94123307    -0.20000
C864        C  0.83350892  0.19456808  0.92758627    -0.10900
C865        C  0.86903417  0.11476242  0.94784497    -0.15000
C866        C  0.86937128  0.08723184  0.93225898    -0.28900
C867        C  0.78380613  0.21166806  0.88992446    -0.03200
C868        C  0.78247902  0.24151553  0.89871037    -0.39700
H869        H  0.77213443  0.15080705  0.89196216     0.13100
H870        H  0.80655830  0.10948125  0.91682319     0.12700
H871        H  0.87695170  0.17653609  0.95429088     0.12100
H872        H  0.84159301  0.21819194  0.93023590     0.12400
H873        H  0.88835204  0.12015883  0.96710322     0.15100
H874        H  0.85162144  0.08252542  0.91119180     0.13900
H875        H  0.76857197  0.20411523  0.86776099     0.11600
H876        H  0.79497728  0.24910625  0.92253998     0.13600
C877        C  0.60913075  0.40581007  0.91812225     0.19700
C878        C  0.64305611  0.41058042  0.91970009    -0.18400
C879        C  0.66434538  0.38765720  0.90902233    -0.10700
C880        C  0.65192873  0.35982217  0.89576181     0.21900
C881        C  0.61807183  0.35506992  0.89431884    -0.20000
C882        C  0.59690957  0.37762247  0.90564065    -0.10900
C883        C  0.67309985  0.33666903  0.87996763    -0.15000
C884        C  0.70395320  0.33024194  0.89146557    -0.28900
C885        C  0.58669535  0.43131755  0.92652848    -0.03200
C886        C  0.55736871  0.42604005  0.93989895    -0.39700
H887        H  0.65304563  0.43225179  0.92874509     0.13100
H888        H  0.69030509  0.39227676  0.90969053     0.12700
H889        H  0.60790311  0.33400472  0.88376578     0.12100
H890        H  0.57089356  0.37346402  0.90308321     0.12400
H891        H  0.66233229  0.32356182  0.85852151     0.15100
H892        H  0.71400611  0.34075481  0.91505884     0.13900
H893        H  0.59428105  0.45488264  0.92099865     0.11600
H894        H  0.55076424  0.40266824  0.94761755     0.13600
C895        C  0.78894173  0.74757799  0.87598483     0.04100
C896        C  0.78769943  0.74758628  0.83916387    -0.12000
C897        C  0.76855314  0.76939160  0.81957560     0.01600
C898        C  0.75000443  0.79055940  0.83730908    -0.10600
C899        C  0.75102723  0.79090481  0.87395462     0.04100
C900        C  0.77127723  0.76991551  0.89315467    -0.10000
H901        H  0.80158996  0.73050985  0.82613640     0.09700
H902        H  0.73502415  0.80731116  0.82244559     0.07200
H903        H  0.77206310  0.76992363  0.92141632     0.07100
O904        O  0.94165417  0.54937226  0.96145148    -0.77500
C905        C  0.46068528  0.49640461  0.04341311     0.83500
O906        O  0.52794609  0.55457047  0.93953194    -0.78600
O907        O  0.53403761  0.92488854  0.96099849    -0.80100
O908        O  0.89681460  0.96480477  0.91940363    -0.79900
O909        O  0.91869506  0.52302726  0.91756211    -0.78500
Zn910      Zn  0.45574516  0.54040692  0.97969975     1.55700
O911        O  0.92587129  0.93678694  0.95913966    -0.79900
Cd912      Cd  0.94936539  0.48611480  0.91232815     1.59700
Cd913      Cd  0.50435303  0.51470983  0.92167846     1.59600
O914        O  0.96300601  0.48791029  0.86132415    -0.79900
O915        O  0.46263067  0.50753104  0.94673474    -1.90400
Cd916      Cd  0.49236969  0.94811584  0.97357971     1.59900
O917        O  0.49418289  0.51846589  0.86782803    -0.79900
O918        O  0.49416647  0.95615344  0.02644603    -0.78500
C919        C  0.51981395  0.57319620  0.96296718     0.84000
C920        C  0.91919615  0.54598890  0.93761866     0.83700
O921        O  0.45496908  0.52314849  0.02970874    -0.77500
C922        C  0.90073688  0.94054545  0.93858697     0.84500
O923        O  0.49365136  0.56968974  0.97921122    -0.77600
C924        C  0.46816339  0.51394441  0.84897837     0.84600
C925        C  0.55826476  0.93166215  0.94263294     0.84900
O926        O  0.56048212  0.95757922  0.92625725    -0.80000
C927        C  0.75536507  0.76315683  0.02687662     0.04100
C928        C  0.75344043  0.76411743  0.06322089    -0.12000
C929        C  0.72916372  0.74766785  0.08048624     0.01600
C930        C  0.70656231  0.73028954  0.06062704    -0.10600
C931        C  0.70811494  0.72891283  0.02398895     0.04100
C932        C  0.73274137  0.74545534  0.00726894    -0.10000
H933        H  0.77056001  0.77853974  0.07766338     0.09700
H934        H  0.68848997  0.71694095  0.07411310     0.07200
H935        H  0.73459274  0.74422368  0.97920015     0.07100
C936        C  0.00487722  0.52679455  0.37214309     0.04100
C937        C  0.99954262  0.53054848  0.33576471    -0.12000
C938        C  0.49984941  0.51382159  0.31598423     0.01600
C939        C  0.52752587  0.97972040  0.33142855    -0.10600
C940        C  0.53571150  0.97773505  0.36747192     0.04100
C941        C  0.51492893  0.50469701  0.38819438    -0.10000
H942        H  0.98501901  0.54980908  0.32521144     0.09700
H943        H  0.53773243  0.96293416  0.31457021     0.07200
H944        H  0.51988243  0.50097363  0.41598551     0.07100
O945        O  0.80998342  0.68703967  0.46743005    -0.77500
C946        C  0.78045458  0.74936077  0.54878524     0.83500
O947        O  0.70402888  0.72557396  0.42879367    -0.78600
O948        O  0.74113376  0.82171440  0.47413471    -0.80100
O949        O  0.84866241  0.78949830  0.43602079    -0.79900
O950        O  0.84189481  0.71270000  0.43139220    -0.78500
Zn951      Zn  0.77447185  0.71707755  0.47870561     1.55700
O952        O  0.82221990  0.81589264  0.47527610    -0.79900
Cd953      Cd  0.81676818  0.75401710  0.42327610     1.59700
Cd954      Cd  0.73690176  0.76073166  0.41967070     1.59600
O955        O  0.80327887  0.75737790  0.37056818    -0.79900
O956        O  0.77692548  0.75537433  0.45143915    -1.90400
Cd957      Cd  0.77989819  0.79139365  0.48308836     1.59900
O958        O  0.74883039  0.76059697  0.36750109    -0.79900
O959        O  0.78076191  0.77642102  0.53493452    -0.78500
C960        C  0.70583329  0.70213186  0.44948622     0.84000
C961        C  0.83507035  0.68846224  0.44909835     0.83700
O962        O  0.77864362  0.72530890  0.53036883    -0.77500
C963        C  0.84675293  0.81199070  0.45660484     0.84500
O964        O  0.73115390  0.69643201  0.46916125    -0.77600
C965        C  0.77615892  0.75927991  0.35294800     0.84600
C966        C  0.71712155  0.82246222  0.45179952     0.84900
O967        O  0.71271871  0.80152336  0.42922597    -0.80000
C968        C  0.00104949  0.99283589  0.52945297     0.04100
C969        C  0.00079325  0.99473245  0.56605169    -0.12000
C970        C  0.51053390  0.01924905  0.57804586     0.01600
C971        C  0.54304894  0.53408889  0.56441785    -0.10600
C972        C  0.54182424  0.53332416  0.52768841     0.04100
C973        C  0.52046963  0.51285820  0.51048437    -0.10000
H974        H  0.98391157  0.98054630  0.58022557     0.09700
H975        H  0.55993952  0.54946295  0.57790976     0.07200
H976        H  0.51950947  0.51212899  0.48218378     0.07100
C977        C  0.64979057  0.63556121  0.47582267     0.19700
C978        C  0.65246013  0.60332758  0.47805502    -0.18400
C979        C  0.62645900  0.58539033  0.48924689    -0.10700
C980        C  0.59757143  0.59953270  0.49913727     0.21900
C981        C  0.59477939  0.63173860  0.49660099    -0.20000
C982        C  0.62051569  0.64963636  0.48469952    -0.10900
C983        C  0.57175399  0.58149544  0.51591303    -0.15000
C984        C  0.56424541  0.55244767  0.50719732    -0.28900
C985        C  0.67895418  0.65412365  0.46808481    -0.03200
C986        C  0.67712545  0.68188719  0.45174300    -0.39700
H987        H  0.67498701  0.59207507  0.47188019     0.13100
H988        H  0.62963038  0.56063282  0.49185837     0.12700
H989        H  0.57291805  0.64309340  0.50462576     0.12100
H990        H  0.61807058  0.67450509  0.48420977     0.12400
H991        H  0.55873696  0.59240035  0.53639090     0.15100
H992        H  0.57470366  0.54243245  0.48452406     0.13900
H993        H  0.70266372  0.64482704  0.47679555     0.11600
H994        H  0.65385201  0.69042600  0.44074376     0.13600
C995        C  0.94761045  0.92322136  0.50479494     0.19700
C996        C  0.95233688  0.89120897  0.50740429    -0.18400
C997        C  0.92810100  0.87110739  0.49498148    -0.10700
C998        C  0.89839476  0.88276953  0.48036054     0.21900
C999        C  0.89383081  0.91479555  0.47729347    -0.20000
C1000       C  0.91836134  0.93492361  0.48904888    -0.10900
C1001       C  0.87060883  0.86207747  0.47203644    -0.15000
C1002       C  0.87436280  0.83361146  0.45974602    -0.28900
C1003       C  0.97201633  0.94366736  0.52190782    -0.03200
C1004       C  0.97804676  0.97244939  0.51020994    -0.39700
H1005       H  0.97454037  0.88174511  0.51983114     0.13100
H1006       H  0.93197063  0.84650193  0.49851998     0.12700
H1007       H  0.87092839  0.92421934  0.46654508     0.12100
H1008       H  0.91372262  0.95951066  0.48743316     0.12400
H1009       H  0.84624223  0.87045884  0.47667794     0.15100
H1010       H  0.89819742  0.82585959  0.45232299     0.13900
H1011       H  0.98588033  0.93452136  0.54475335     0.11600
H1012       H  0.96695037  0.98082371  0.48544867     0.13600
C1013       C  0.64216536  0.87523386  0.43115411     0.19700
C1014       C  0.61022480  0.86978675  0.41799863    -0.18400
C1015       C  0.58811850  0.89409801  0.41224882    -0.10700
C1016       C  0.59759937  0.92459890  0.41918034     0.21900
C1017       C  0.62897047  0.92997024  0.43396622    -0.20000
C1018       C  0.65119739  0.90560578  0.43966474    -0.10900
C1019       C  0.57575367  0.95117319  0.40965184    -0.15000
C1020       C  0.55585944  0.95107151  0.38066756    -0.28900
C1021       C  0.66564621  0.84899096  0.43309923    -0.03200
C1022       C  0.69405630  0.84867955  0.45220219    -0.39700
H1023       H  0.60249377  0.84664061  0.41151007     0.13100
H1024       H  0.56374517  0.88901266  0.40190173     0.12700
H1025       H  0.63677696  0.95325927  0.43967509     0.12100
H1026       H  0.67567172  0.91096353  0.44934344     0.12400
H1027       H  0.57845505  0.97203266  0.42463645     0.15100
H1028       H  0.55605799  0.93108981  0.36410038     0.13900
H1029       H  0.65902299  0.82878812  0.41807384     0.11600
H1030       H  0.70054686  0.86769724  0.46903400     0.13600
C1031       C  0.90440008  0.63269772  0.42783717     0.19700
C1032       C  0.93853624  0.63433817  0.42633357    -0.18400
C1033       C  0.95655701  0.60873940  0.41647597    -0.10700
C1034       C  0.94055485  0.58122864  0.40725109     0.21900
C1035       C  0.90658365  0.57938753  0.40960101    -0.20000
C1036       C  0.88868652  0.60470013  0.42000647    -0.10900
C1037       C  0.95746768  0.55604959  0.38982307    -0.15000
C1038       C  0.98916968  0.54853378  0.39555379    -0.28900
C1039       C  0.88542398  0.66116865  0.43386035    -0.03200
C1040       C  0.85582320  0.66068823  0.44766399    -0.39700
H1041       H  0.95116464  0.65574903  0.43182682     0.13100
H1042       H  0.98263946  0.61111433  0.41407222     0.12700
H1043       H  0.89367254  0.55860632  0.40205866     0.12100
H1044       H  0.86238096  0.60275165  0.41989194     0.12400
H1045       H  0.94309549  0.54349231  0.37027808     0.15100
H1046       H  0.00357543  0.55848401  0.41695593     0.13900
H1047       H  0.89593413  0.68315226  0.42605274     0.11600
H1048       H  0.84610264  0.63915116  0.45783067     0.13600
C1049       C  0.75111756  0.76016871  0.25391113     0.19700
C1050       C  0.72147250  0.75752074  0.23425918    -0.18400
C1051       C  0.72093866  0.75586449  0.19774366    -0.10700
C1052       C  0.75026152  0.75669193  0.18000177     0.21900
C1053       C  0.77976617  0.75986962  0.19961091    -0.20000
C1054       C  0.78029333  0.76171884  0.23594244    -0.10900
C1055       C  0.75173961  0.75524474  0.14128761    -0.15000
C1056       C  0.72636081  0.74854457  0.11910647    -0.28900
C1057       C  0.75041926  0.76132652  0.29281528    -0.03200
C1058       C  0.77726102  0.75943121  0.31447467    -0.39700
H1059       H  0.69856443  0.75664907  0.24722647     0.13100
H1060       H  0.69749890  0.75421619  0.18383882     0.12700
H1061       H  0.80271300  0.76102100  0.18672361     0.12100
H1062       H  0.80377003  0.76464387  0.24935094     0.12400
H1063       H  0.77556230  0.75900881  0.13079677     0.15100
H1064       H  0.70295860  0.74234225  0.12924680     0.13900
H1065       H  0.72668595  0.76299041  0.30413705     0.11600
H1066       H  0.80125613  0.75699178  0.30427363     0.13600
C1067       C  0.80283137  0.82185977  0.97197412     0.19700
C1068       C  0.79420748  0.85171511  0.95987899    -0.18400
C1069       C  0.81829193  0.87358102  0.95263661    -0.10700
C1070       C  0.85163925  0.86586118  0.95704935     0.21900
C1071       C  0.86011702  0.83549067  0.96740780    -0.20000
C1072       C  0.83605219  0.81365881  0.97455412    -0.10900
C1073       C  0.87817403  0.88922062  0.95433422    -0.15000
C1074       C  0.87476419  0.91674196  0.93739154    -0.28900
C1075       C  0.77692253  0.80042922  0.98364872    -0.03200
C1076       C  0.78213916  0.78033082  0.01061765    -0.39700
H1077       H  0.76880102  0.85864143  0.95771455     0.13100
H1078       H  0.81058259  0.89678218  0.94529263     0.12700
H1079       H  0.88554287  0.82879954  0.97078450     0.12100
H1080       H  0.84354567  0.79055367  0.98275519     0.12400
H1081       H  0.90157712  0.88356285  0.96743675     0.15100
H1082       H  0.85230255  0.92236426  0.92251262     0.13900
H1083       H  0.75218471  0.80359350  0.97273517     0.11600
H1084       H  0.80586965  0.77961250  0.02445442     0.13600
C1085       C  0.63338854  0.67885569  0.99554139     0.19700
C1086       C  0.59987262  0.68022130  0.00116249    -0.18400
C1087       C  0.57860063  0.65759137  0.98821517    -0.10700
C1088       C  0.59049476  0.63249418  0.96986535     0.21900
C1089       C  0.62387442  0.63167686  0.96321225    -0.20000
C1090       C  0.64517696  0.65449301  0.97601010    -0.10900
C1091       C  0.56902934  0.60661495  0.95793895    -0.15000
C1092       C  0.54071059  0.59969004  0.97272567    -0.28900
C1093       C  0.65533207  0.70169976  0.01301721    -0.03200
C1094       C  0.68570160  0.70858508  0.00323520    -0.39700
H1095       H  0.59010136  0.69877859  0.01598550     0.13100
H1096       H  0.55293059  0.65998065  0.99280164     0.12700
H1097       H  0.63370324  0.61277137  0.94899284     0.12100
H1098       H  0.67092660  0.65225125  0.97167870     0.12400
H1099       H  0.57762913  0.59183966  0.93777640     0.15100
H1100       H  0.53256360  0.61328498  0.99404993     0.13900
H1101       H  0.64575241  0.71350326  0.03502889     0.11600
H1102       H  0.69445713  0.69935215  0.97931310     0.13600
C1103       C  0.50675565  0.00964441  0.75142850     0.19700
C1104       C  0.53362684  0.00594081  0.73056480    -0.18400
C1105       C  0.52971843  0.00779001  0.69404660    -0.10700
C1106       C  0.00178460  0.51089229  0.67520973     0.21900
C1107       C  0.97439650  0.51512434  0.69513996    -0.20000
C1108       C  0.97737280  0.51464393  0.73161885    -0.10900
C1109       C  0.99687236  0.50974160  0.63654518    -0.15000
C1110       C  0.52462837  0.51671802  0.62269345    -0.28900
C1111       C  0.51123467  0.00620077  0.79012161    -0.03200
C1112       C  0.46889487  0.51478530  0.81047803    -0.39700
H1113       H  0.55752354  0.00076300  0.74253069     0.13100
H1114       H  0.55070804  0.00353548  0.67876907     0.12700
H1115       H  0.95051175  0.51880779  0.68240783     0.12100
H1116       H  0.95568206  0.51865201  0.74586426     0.12400
H1117       H  0.97227577  0.50517104  0.62623454     0.15100
H1118       H  0.53980204  0.02888491  0.62639042     0.13900
H1119       H  0.53508271  0.01103047  0.80233107     0.11600
H1120       H  0.96369202  0.49121627  0.79534193     0.13600
C1121       C  0.98955402  0.50187530  0.14004140     0.19700
C1122       C  0.00292437  0.52627620  0.15939115    -0.18400
C1123       C  0.00742378  0.52351995  0.19579580    -0.10700
C1124       C  0.49681316  0.98948947  0.21718610     0.21900
C1125       C  0.48907582  0.96374005  0.19692264    -0.20000
C1126       C  0.48487487  0.96662527  0.16053450    -0.10900
C1127       C  0.50250130  0.98494241  0.25568533    -0.15000
C1128       C  0.49187760  0.52000696  0.27809421    -0.28900
C1129       C  0.98671037  0.50489868  0.10126974    -0.03200
C1130       C  0.46276718  0.49172526  0.08178294    -0.39700
H1131       H  0.01076288  0.54719838  0.14619635     0.13100
H1132       H  0.01902311  0.54231039  0.20967115     0.12700
H1133       H  0.48615178  0.94123998  0.20933037     0.12100
H1134       H  0.47817665  0.94624407  0.14618751     0.12400
H1135       H  0.50766076  0.96159467  0.26520279     0.15100
H1136       H  0.00174599  0.53832941  0.26525186     0.13900
H1137       H  0.98527429  0.52798034  0.08954045     0.11600
H1138       H  0.49514535  0.95300291  0.09288265     0.13600
C1139       C  0.78283489  0.76552341  0.64755100     0.19700
C1140       C  0.76971112  0.78888033  0.66735968    -0.18400
C1141       C  0.77098939  0.78661175  0.70385712    -0.10700
C1142       C  0.78561395  0.76085129  0.72137869     0.21900
C1143       C  0.79944276  0.73785285  0.70160551    -0.20000
C1144       C  0.79800821  0.74004191  0.66507841    -0.10900
C1145       C  0.78810866  0.75788635  0.76014368    -0.15000
C1146       C  0.76638585  0.77080699  0.78067952    -0.28900
C1147       C  0.78135708  0.76916529  0.60883970    -0.03200
C1148       C  0.78228705  0.74523908  0.58720085    -0.39700
H1149       H  0.75841477  0.80899537  0.65452910     0.13100
H1150       H  0.76118449  0.80543017  0.71814854     0.12700
H1151       H  0.81136804  0.71807954  0.71448588     0.12100
H1152       H  0.80943805  0.72208394  0.65081834     0.12400
H1153       H  0.80829223  0.74440176  0.77164406     0.15100
H1154       H  0.74603700  0.78371978  0.76850390     0.13900
H1155       H  0.77816079  0.79236751  0.59777640     0.11600
H1156       H  0.78354835  0.72176568  0.59770530     0.13600
C1157       C  0.82972277  0.67041595  0.90625419     0.19700
C1158       C  0.81991279  0.63957853  0.90330024    -0.18400
C1159       C  0.83945570  0.61566263  0.91768199    -0.10700
C1160       C  0.86988118  0.62203233  0.93457084     0.21900
C1161       C  0.87900627  0.65299741  0.93891354    -0.20000
C1162       C  0.85918866  0.67700790  0.92484967    -0.10900
C1163       C  0.89336310  0.59711830  0.94612855    -0.15000
C1164       C  0.89313383  0.56924179  0.93136689    -0.28900
C1165       C  0.80996794  0.69466463  0.88713983    -0.03200
C1166       C  0.80856041  0.72425865  0.89681954    -0.39700
H1167       H  0.79717025  0.63393184  0.88937644     0.13100
H1168       H  0.83070931  0.59227685  0.91501267     0.12700
H1169       H  0.90217371  0.65860583  0.95197161     0.12100
H1170       H  0.86770230  0.70052506  0.92719429     0.12400
H1171       H  0.91320727  0.60282145  0.96463130     0.15100
H1172       H  0.87471896  0.56391466  0.91119780     0.13900
H1173       H  0.79511274  0.68752483  0.86451733     0.11600
H1174       H  0.82046864  0.73118587  0.92130540     0.13600
C1175       C  0.63509988  0.88780719  0.91744771     0.19700
C1176       C  0.66891113  0.89313165  0.91839151    -0.18400
C1177       C  0.69042475  0.87018450  0.90835689    -0.10700
C1178       C  0.67828118  0.84178540  0.89643238     0.21900
C1179       C  0.64454876  0.83649769  0.89560295    -0.20000
C1180       C  0.62318273  0.85909957  0.90625622    -0.10900
C1181       C  0.69952627  0.81852755  0.88119607    -0.15000
C1182       C  0.73074387  0.81324705  0.89199735    -0.28900
C1183       C  0.61236488  0.91315618  0.92523145    -0.03200
C1184       C  0.58345398  0.90769768  0.93936823    -0.39700
H1185       H  0.67861440  0.91521767  0.92643840     0.13100
H1186       H  0.71629412  0.87518335  0.90845416     0.12700
H1187       H  0.63463023  0.81497401  0.88601516     0.12100
H1188       H  0.59722785  0.85452299  0.90419429     0.12400
H1189       H  0.68867102  0.80459025  0.86049585     0.15100
H1190       H  0.74117056  0.82473888  0.91468462     0.13900
H1191       H  0.61937110  0.93669629  0.91870229     0.11600
H1192       H  0.57752181  0.88445943  0.94823303     0.13600
loop_ 
_geom_bond_atom_site_label_1 
_geom_bond_atom_site_label_2 
_geom_bond_distance 
_geom_bond_site_symmetry_2 
_ccdc_geom_bond_type 
C1            C2   1.410       .  A
C1            C6   1.405       .  A
C1          C272   1.487       .  S
C2            C3   1.409       .  A
C2            H7   1.080       .  S
C3            C4   1.402       .  A
C3          C252   1.491       .  S
C4            C5   1.403       .  A
C4            H8   1.084       .  S
C5            C6   1.403       .  A
C5          C288   1.482       .  S
C6            H9   1.082       .  S
O10          C26   1.278       .  A
O10        Zn612   2.055       .  S
C11         C236   1.474       .  S
C11          O27   1.278   1_565  A
C11         O322   1.274       .  A
O12          C25   1.279       .  A
O12         Cd19   2.104       .  S
O13          C31   1.275       .  A
O13         Cd22   2.071   1_455  S
O14          C28   1.275       .  A
O14        Cd316   2.083       .  S
O15          C26   1.272       .  A
O15         Cd18   2.052   1_545  S
Zn16         O27   2.036   1_556  S
Zn16         O29   2.021       .  S
Zn16        O606   2.057       .  S
Zn16         O21   1.954       .  S
O17          C28   1.275       .  A
O17        Cd618   2.077       .  S
Cd18         O20   2.052       .  S
Cd18        O312   2.073       .  S
Cd18        O617   1.990       .  S
Cd19         O23   2.092   1_455  S
Cd19        O330   2.089   1_545  S
Cd19         O21   2.020   1_455  S
O20         C626   1.272       .  A
O21        Cd614   1.991       .  S
O21        Cd320   1.998   1_545  S
Cd22         O24   2.065   1_556  S
Cd22        O613   2.083       .  S
Cd22        O319   1.997       .  S
O23          C30   1.279       .  A
O24         C309   1.274       .  A
C25         C198   1.485       .  S
C25          O29   1.274   1_455  A
C26         C270   1.478       .  S
C28         C180   1.483       .  S
C30         C218   1.475       .  S
C30         O616   1.274       .  A
C31         C290   1.478       .  S
C31          O32   1.278       .  A
O32        Cd317   2.089       .  S
C33          C34   1.400       .  A
C33          C38   1.408       .  A
C33         C182   1.483       .  S
C34          C35   1.405       .  A
C34          H39   1.082       .  S
C35          C36   1.405       .  A
C35         C162   1.492       .  S
C36          C37   1.412       .  A
C36          H40   1.082       .  S
C37          C38   1.411       .  A
C37         C200   1.496       .  S
C38          H41   1.084   1_554  S
C42          C43   1.406       .  A
C42         C643   1.404       .  A
C42         C144   1.481       .  S
C43         C640   1.402       .  A
C43          H48   1.084       .  S
C44         C639   1.397       .  A
C44         C343   1.403   1_645  A
C44         C234   1.484       .  S
C45          C46   1.406       .  A
C45         C342   1.404       .  A
C45          H49   1.083       .  S
C46         C345   1.412       .  A
C46         C126   1.488       .  S
C47         C638   1.407   1_465  A
C47         C344   1.413       .  A
C47          H50   1.082       .  S
O51          C67   1.273       .  A
O51         Zn57   2.025       .  S
C52         C254   1.478       .  S
C52          O68   1.274       .  A
C52          O65   1.276       .  A
O53          C66   1.274       .  A
O53         Cd60   2.074       .  S
O54          C72   1.275       .  A
O54         Cd63   2.081       .  S
O55          C69   1.274       .  A
O55         Cd59   2.071       .  S
O56          C67   1.275       .  A
O56         Cd59   2.080       .  S
Zn57         O68   2.020       .  S
Zn57         O70   2.006       .  S
Zn57         O62   1.946       .  S
O58          C69   1.276       .  A
O58         Cd63   2.066       .  S
Cd59         O61   2.072       .  S
Cd59         O62   2.005       .  S
Cd60         O64   2.083       .  S
Cd60         O73   2.088       .  S
Cd60         O62   2.010       .  S
O61          C71   1.275       .  A
O62         Cd63   2.003       .  S
Cd63         O65   2.077       .  S
O64          C71   1.278       .  A
C66          C92   1.473       .  S
C66          O70   1.274       .  A
C67         C146   1.481       .  S
C69         C108   1.473       .  S
C71         C164   1.479       .  S
C72         C128   1.484       .  S
C72          O73   1.277       .  A
C74          C75   1.406       .  A
C74         C973   1.401       .  A
C74         C110   1.478       .  S
C75         C672   1.406       .  A
C75          H80   1.082       .  S
C76         C671   1.405   1_455  A
C76         C375   1.401       .  A
C76         C514   1.487       .  S
C77          C78   1.406       .  A
C77         C374   1.402       .  A
C77          H81   1.084       .  S
C78          C79   1.399       .  A
C78          C90   1.476       .  S
C79         C968   1.399   1_545  A
C79          H82   1.085       .  S
C83          C84   1.403       .  A
C83          C88   1.406       .  A
C83          C91   1.479       .  S
C84          C85   1.398       .  A
C84          H93   1.083       .  S
C85          C86   1.406       .  A
C85          H94   1.083       .  S
C86          C87   1.401       .  A
C86          C89   1.477       .  S
C87          C88   1.396       .  A
C87          H95   1.084       .  S
C88          H96   1.082       .  S
C89          H97   1.087       .  S
C89          C90   1.342       .  D
C90          H98   1.086       .  S
C91          H99   1.087       .  S
C91          C92   1.344       .  D
C92         H100   1.086       .  S
C101        C102   1.402       .  A
C101        C106   1.406       .  A
C101        C109   1.478       .  S
C102        C103   1.397       .  A
C102        H111   1.083       .  S
C103        C104   1.406       .  A
C103        H112   1.082       .  S
C104        C105   1.402       .  A
C104        C107   1.480       .  S
C105        C106   1.397       .  A
C105        H113   1.083       .  S
C106        H114   1.083       .  S
C107        H115   1.087       .  S
C107        C108   1.344       .  D
C108        H116   1.086       .  S
C109        H117   1.087       .  S
C109        C110   1.343       .  D
C110        H118   1.087       .  S
C119        C120   1.404       .  A
C119        C124   1.410       .  A
C119        C127   1.495       .  S
C120        C121   1.399       .  A
C120        H129   1.083       .  S
C121        C122   1.407       .  A
C121        H130   1.082       .  S
C122        C123   1.404       .  A
C122        C125   1.492       .  S
C123        C124   1.403       .  A
C123        H131   1.083       .  S
C124        H132   1.081       .  S
C125        H133   1.086       .  S
C125        C126   1.347       .  D
C126        H134   1.086       .  S
C127        H135   1.087       .  S
C127        C128   1.349       .  D
C128        H136   1.084       .  S
C137        C138   1.406       .  A
C137        C142   1.408       .  A
C137        C145   1.491       .  S
C138        C139   1.402       .  A
C138        H147   1.083       .  S
C139        C140   1.406       .  A
C139        H148   1.083       .  S
C140        C141   1.402       .  A
C140        C143   1.483       .  S
C141        C142   1.398       .  A
C141        H149   1.084       .  S
C142        H150   1.081       .  S
C143        H151   1.088       .  S
C143        C144   1.345       .  D
C144        H152   1.086       .  S
C145        H153   1.087       .  S
C145        C146   1.348       .  D
C146        H154   1.085       .  S
C155        C156   1.405       .  A
C155        C160   1.409       .  A
C155        C163   1.493       .  S
C156        C157   1.400       .  A
C156        H165   1.083       .  S
C157        C158   1.408       .  A
C157        H166   1.080       .  S
C158        C159   1.405       .  A
C158        C161   1.492       .  S
C159        C160   1.399       .  A
C159        H167   1.083       .  S
C160        H168   1.080       .  S
C161        H169   1.084       .  S
C161        C162   1.351       .  D
C162        H170   1.083       .  S
C163        H171   1.087       .  S
C163        C164   1.348       .  D
C164        H172   1.083       .  S
C173        C174   1.404       .  A
C173        C178   1.407       .  A
C173        C181   1.492       .  S
C174        C175   1.402       .  A
C174        H183   1.083       .  S
C175        C176   1.409       .  A
C175        H184   1.081       .  S
C176        C177   1.405       .  A
C176        C179   1.493       .  S
C177        C178   1.399       .  A
C177        H185   1.083       .  S
C178        H186   1.082       .  S
C179        H187   1.087       .  S
C179        C180   1.349       .  D
C180        H188   1.084       .  S
C181        H189   1.086       .  S
C181        C182   1.345   1_556  D
C182        H190   1.086       .  S
C191        C192   1.404   1_556  A
C191        C196   1.408       .  A
C191        C199   1.494   1_556  S
C192        C193   1.400   1_554  A
C192        H201   1.084       .  S
C193        C194   1.410       .  A
C193        H202   1.080   1_556  S
C194        C195   1.407       .  A
C194        C197   1.500       .  S
C195        C196   1.405       .  A
C195        H203   1.083       .  S
C196        H204   1.081       .  S
C197        H205   1.086       .  S
C197        C198   1.350       .  D
C198        H206   1.083       .  S
C199        H207   1.086       .  S
C199        C200   1.352       .  D
C200        H208   1.085   1_554  S
C209        C210   1.404       .  A
C209       C1108   1.409   1_455  A
C209        C217   1.490       .  S
C210        C211   1.402       .  A
C210        H219   1.083       .  S
C211       C1106   1.409       .  A
C211        H220   1.081       .  S
C212        C213   1.401       .  A
C212       C1105   1.408       .  A
C212        C215   1.485       .  S
C213        C214   1.396       .  A
C213        H221   1.084       .  S
C214       C1103   1.409       .  A
C214        H222   1.082       .  S
C215        H223   1.086       .  S
C215        C812   1.345       .  D
C216        C374   1.487       .  S
C216        H522   1.086       .  S
C216        C811   1.346   1_455  D
C217        H225   1.087       .  S
C217        C516   1.346   1_455  D
C218        H822   1.085       .  S
C218        C515   1.345       .  D
H224        C514   1.085       .  S
H226        C814   1.086       .  S
C227        C228   1.404   1_565  A
C227       C1126   1.409       .  A
C227        C235   1.493       .  S
C228        C229   1.401       .  A
C228        H237   1.083       .  S
C229       C1124   1.408   1_545  A
C229        H238   1.081       .  S
C230        C231   1.402       .  A
C230       C1123   1.408   1_655  A
C230        C233   1.486   1_655  S
C231        C232   1.397       .  A
C231        H239   1.083       .  S
C232       C1121   1.407       .  A
C232        H240   1.082       .  S
C233        H241   1.086       .  S
C233        C532   1.346       .  D
C234        H838   1.086       .  S
C234        C531   1.345   1_545  D
C235        H243   1.087   1_565  S
C235        C832   1.346       .  D
C236        H542   1.085       .  S
C236        C831   1.345   1_565  D
H242        C830   1.085       .  S
H244        C534   1.086       .  S
C245        C246   1.403       .  A
C245        C250   1.409       .  A
C245        C253   1.488       .  S
C246        C247   1.399       .  A
C246        H255   1.084       .  S
C247        C248   1.408       .  A
C247        H256   1.082       .  S
C248        C249   1.402       .  A
C248        C251   1.487       .  S
C249        C250   1.399       .  A
C249        H257   1.083       .  S
C250        H258   1.081       .  S
C251        H259   1.083       .  S
C251        C252   1.348       .  D
C252        H260   1.086       .  S
C253        H261   1.087       .  S
C253        C254   1.346       .  D
C254        H262   1.085       .  S
C263        C264   1.402       .  A
C263        C268   1.407       .  A
C263        C271   1.486       .  S
C264        C265   1.398       .  A
C264        H273   1.083       .  S
C265        C266   1.410       .  A
C265        H274   1.081       .  S
C266        C267   1.406       .  A
C266        C269   1.494       .  S
C267        C268   1.403       .  A
C267        H275   1.083       .  S
C268        H276   1.082       .  S
C269        H277   1.086       .  S
C269        C270   1.347       .  D
C270        H278   1.084       .  S
C271        H279   1.087       .  S
C271        C272   1.347       .  D
C272        H280   1.086       .  S
C281        C282   1.405       .  A
C281        C286   1.407       .  A
C281        C289   1.487       .  S
C282        C283   1.402       .  A
C282        H291   1.083       .  S
C283        C284   1.406       .  A
C283        H292   1.083       .  S
C284        C285   1.402       .  A
C284        C287   1.482       .  S
C285        C286   1.397       .  A
C285        H293   1.083       .  S
C286        H294   1.082       .  S
C287        H295   1.087       .  S
C287        C288   1.345       .  D
C288        H296   1.084       .  S
C289        H297   1.087       .  S
C289        C290   1.346       .  D
C290        H298   1.086       .  S
C299        C300   1.407       .  A
C299        C304   1.404       .  A
C299        C570   1.484       .  S
C300        C301   1.409       .  A
C300        H305   1.080       .  S
C301        C302   1.405       .  A
C301        C550   1.494       .  S
C302        C303   1.407       .  A
C302        H306   1.084       .  S
C303        C304   1.404       .  A
C303        C586   1.488       .  S
C304        H307   1.083       .  S
O308        C324   1.277       .  A
O308       Zn910   2.049       .  S
C309        C534   1.476       .  S
C309        O325   1.277       .  A
O310        C323   1.278       .  A
O310       Cd317   2.098       .  S
O311        C329   1.275       .  A
O311       Cd320   2.072   1_455  S
O312        C326   1.273       .  A
O313        C324   1.274       .  A
O313       Cd316   2.065       .  S
Zn314       O904   2.045       .  S
Zn314       O325   2.034   1_556  S
Zn314       O327   2.013   1_655  S
Zn314       O319   1.952       .  S
O315        C326   1.276       .  A
O315       Cd916   2.082       .  S
Cd316       O318   2.063       .  S
Cd316       O915   1.995       .  S
Cd317       O321   2.098       .  S
Cd317       O319   2.022   1_455  S
O318        C924   1.274       .  A
O319       Cd912   1.990       .  S
Cd320       O911   2.081       .  S
Cd320       O322   2.059   1_556  S
O321        C328   1.279   1_455  A
C323        C496   1.479       .  S
C323        O327   1.274       .  A
C324        C568   1.479       .  S
C326        C478   1.482       .  S
C328        C516   1.476       .  S
C328        O914   1.273       .  A
C329        C588   1.479       .  S
C329        O330   1.278       .  A
C331        C332   1.400       .  A
C331        C336   1.408       .  A
C331        C480   1.481       .  S
C332        C333   1.403       .  A
C332        H337   1.083       .  S
C333        C334   1.401       .  A
C333        C460   1.488       .  S
C334        C335   1.411       .  A
C334        H338   1.083       .  S
C335        C336   1.408       .  A
C335        C498   1.490       .  S
C336        H339   1.084   1_554  S
C340        C341   1.406       .  A
C340        C941   1.407       .  A
C340        C442   1.484       .  S
C341        C938   1.399       .  A
C341        H346   1.084       .  S
C342        C937   1.398   1_455  A
C342        C532   1.486       .  S
C343        C344   1.406       .  A
C343        H347   1.083       .  S
C344        C424   1.490       .  S
C345        C936   1.408       .  A
C345        H348   1.083       .  S
O349        C365   1.274       .  A
O349       Zn355   2.032       .  S
C350        C552   1.479       .  S
C350        O366   1.275       .  A
C350        O363   1.276       .  A
O351        C364   1.273       .  A
O351       Cd358   2.066       .  S
O352        C370   1.275       .  A
O352       Cd361   2.078       .  S
O353        C367   1.272       .  A
O353       Cd357   2.061       .  S
O354        C365   1.274       .  A
O354       Cd357   2.070       .  S
Zn355       O366   2.027       .  S
Zn355       O368   2.018       .  S
Zn355       O360   1.948       .  S
O356        C367   1.276       .  A
O356       Cd361   2.069       .  S
Cd357       O359   2.066       .  S
Cd357       O360   2.000       .  S
Cd358       O362   2.080       .  S
Cd358       O371   2.084       .  S
Cd358       O360   2.005       .  S
O359        C369   1.274       .  A
O360       Cd361   2.000       .  S
Cd361       O363   2.074       .  S
O362        C369   1.277       .  A
C364        C390   1.472       .  S
C364        O368   1.275       .  A
C365        C444   1.480       .  S
C367        C406   1.470       .  S
C369        C462   1.475       .  S
C370        C426   1.483       .  S
C370        O371   1.277       .  A
C372        C373   1.407       .  A
C372        C675   1.398   1_565  A
C372        C408   1.475       .  S
C373        C970   1.406   1_565  A
C373        H378   1.082       .  S
C374        C969   1.407   1_545  A
C375        C376   1.407       .  A
C375        H379   1.084       .  S
C376        C377   1.400       .  A
C376        C388   1.478       .  S
C377        C670   1.401   1_455  A
C377        H380   1.084       .  S
C381        C382   1.402       .  A
C381        C386   1.406       .  A
C381        C389   1.479       .  S
C382        C383   1.398       .  A
C382        H391   1.083       .  S
C383        C384   1.407       .  A
C383        H392   1.082       .  S
C384        C385   1.401       .  A
C384        C387   1.478       .  S
C385        C386   1.396       .  A
C385        H393   1.084       .  S
C386        H394   1.082       .  S
C387        H395   1.087       .  S
C387        C388   1.342       .  D
C388        H396   1.086       .  S
C389        H397   1.087       .  S
C389        C390   1.343       .  D
C390        H398   1.086       .  S
C399        C400   1.402       .  A
C399        C404   1.406       .  A
C399        C407   1.477       .  S
C400        C401   1.396       .  A
C400        H409   1.083       .  S
C401        C402   1.406       .  A
C401        H410   1.083       .  S
C402        C403   1.401       .  A
C402        C405   1.477       .  S
C403        C404   1.395       .  A
C403        H411   1.083       .  S
C404        H412   1.082       .  S
C405        H413   1.087       .  S
C405        C406   1.341       .  D
C406        H414   1.086       .  S
C407        H415   1.087       .  S
C407        C408   1.342       .  D
C408        H416   1.087       .  S
C417        C418   1.404       .  A
C417        C422   1.411       .  A
C417        C425   1.494       .  S
C418        C419   1.397       .  A
C418        H427   1.084       .  S
C419        C420   1.408       .  A
C419        H428   1.082       .  S
C420        C421   1.404       .  A
C420        C423   1.492       .  S
C421        C422   1.403       .  A
C421        H429   1.084       .  S
C422        H430   1.080       .  S
C423        H431   1.085       .  S
C423        C424   1.348       .  D
C424        H432   1.086       .  S
C425        H433   1.087       .  S
C425        C426   1.348       .  D
C426        H434   1.084       .  S
C435        C436   1.406       .  A
C435        C440   1.407       .  A
C435        C443   1.489       .  S
C436        C437   1.403       .  A
C436        H445   1.083       .  S
C437        C438   1.406       .  A
C437        H446   1.083       .  S
C438        C439   1.402       .  A
C438        C441   1.483       .  S
C439        C440   1.397       .  A
C439        H447   1.083       .  S
C440        H448   1.082       .  S
C441        H449   1.088       .  S
C441        C442   1.347       .  D
C442        H450   1.086       .  S
C443        H451   1.087       .  S
C443        C444   1.348       .  D
C444        H452   1.085       .  S
C453        C454   1.405       .  A
C453        C458   1.408       .  A
C453        C461   1.490       .  S
C454        C455   1.401       .  A
C454        H463   1.083       .  S
C455        C456   1.408       .  A
C455        H464   1.081       .  S
C456        C457   1.402       .  A
C456        C459   1.486       .  S
C457        C458   1.396       .  A
C457        H465   1.084       .  S
C458        H466   1.080       .  S
C459        H467   1.086       .  S
C459        C460   1.348       .  D
C460        H468   1.085       .  S
C461        H469   1.087       .  S
C461        C462   1.347       .  D
C462        H470   1.084       .  S
C471        C472   1.403       .  A
C471        C476   1.407       .  A
C471        C479   1.489       .  S
C472        C473   1.402       .  A
C472        H481   1.084       .  S
C473        C474   1.411       .  A
C473        H482   1.080       .  S
C474        C475   1.404       .  A
C474        C477   1.494       .  S
C475        C476   1.398       .  A
C475        H483   1.083       .  S
C476        H484   1.082   1_556  S
C477        H485   1.087       .  S
C477        C478   1.348       .  D
C478        H486   1.084       .  S
C479        H487   1.085       .  S
C479        C480   1.345   1_556  D
C480        H488   1.086       .  S
C489        C490   1.402       .  A
C489        C494   1.409       .  A
C489        C497   1.488   1_556  S
C490        C491   1.396       .  A
C490        H499   1.084   1_556  S
C491        C492   1.408       .  A
C491        H500   1.081       .  S
C492        C493   1.406       .  A
C492        C495   1.495       .  S
C493        C494   1.405       .  A
C493        H501   1.083       .  S
C494        H502   1.082       .  S
C495        H503   1.086       .  S
C495        C496   1.348       .  D
C496        H504   1.085       .  S
C497        H505   1.087       .  S
C497        C498   1.348       .  D
C498        H506   1.086   1_554  S
C507        C508   1.404   1_655  A
C507        C810   1.409       .  A
C507        C515   1.490       .  S
C508        C509   1.400       .  A
C508        H517   1.083       .  S
C509        C808   1.408   1_455  A
C509        H518   1.082       .  S
C510        C807   1.407       .  A
C510        C511   1.401       .  A
C510        C513   1.484       .  S
C511        C512   1.396       .  A
C511        H519   1.084       .  S
C512        C805   1.409       .  A
C512        H520   1.080       .  S
C513        H521   1.086       .  S
C513       C1110   1.346       .  D
C514       C1109   1.347   1_455  D
C515        H523   1.087   1_655  S
C516       H1120   1.085       .  S
H524       C1112   1.084       .  S
C525        C526   1.404       .  A
C525        C828   1.408       .  A
C525        C533   1.492       .  S
C526        C527   1.402       .  A
C526        H535   1.083       .  S
C527        C826   1.410       .  A
C527        H536   1.080       .  S
C528        C825   1.407   1_565  A
C528        C529   1.402       .  A
C528        C531   1.484       .  S
C529        C530   1.397       .  A
C529        H537   1.083       .  S
C530        C823   1.408   1_565  A
C530        H538   1.082       .  S
C531        H539   1.086       .  S
C532       H1136   1.086       .  S
C533        H541   1.087       .  S
C533       C1130   1.347       .  D
C534       C1129   1.346       .  D
H540       C1128   1.084       .  S
C543        C544   1.404       .  A
C543        C548   1.409       .  A
C543        C551   1.491       .  S
C544        C545   1.398       .  A
C544        H553   1.083       .  S
C545        C546   1.408       .  A
C545        H554   1.081       .  S
C546        C547   1.404       .  A
C546        C549   1.491       .  S
C547        C548   1.400       .  A
C547        H555   1.084       .  S
C548        H556   1.080       .  S
C549        H557   1.083       .  S
C549        C550   1.350       .  D
C550        H558   1.085       .  S
C551        H559   1.087       .  S
C551        C552   1.348       .  D
C552        H560   1.084       .  S
C561        C562   1.402       .  A
C561        C566   1.408       .  A
C561        C569   1.487       .  S
C562        C563   1.397       .  A
C562        H571   1.083       .  S
C563        C564   1.407       .  A
C563        H572   1.082       .  S
C564        C565   1.406       .  A
C564        C567   1.493       .  S
C565        C566   1.404       .  A
C565        H573   1.083       .  S
C566        H574   1.082       .  S
C567        H575   1.087       .  S
C567        C568   1.349       .  D
C568        H576   1.085       .  S
C569        H577   1.087       .  S
C569        C570   1.346       .  D
C570        H578   1.083       .  S
C579        C580   1.405       .  A
C579        C584   1.406       .  A
C579        C587   1.487       .  S
C580        C581   1.403       .  A
C580        H589   1.083       .  S
C581        C582   1.407       .  A
C581        H590   1.082       .  S
C582        C583   1.403       .  A
C582        C585   1.486       .  S
C583        C584   1.397       .  A
C583        H591   1.083       .  S
C584        H592   1.083       .  S
C585        H593   1.087       .  S
C585        C586   1.348       .  D
C586        H594   1.086       .  S
C587        H595   1.087       .  S
C587        C588   1.346       .  D
C588        H596   1.087       .  S
C597        C598   1.408       .  A
C597        C602   1.405       .  A
C597        C868   1.487       .  S
C598        C599   1.408       .  A
C598        H603   1.081       .  S
C599        C600   1.404       .  A
C599        C848   1.492       .  S
C600        C601   1.407       .  A
C600        H604   1.084       .  S
C601        C602   1.405       .  A
C601        C884   1.487       .  S
C602        H605   1.083       .  S
O606        C622   1.278       .  A
C607        C832   1.479       .  S
C607        O623   1.279   1_565  A
C607        O918   1.274       .  A
O608        C621   1.278       .  A
O608       Cd615   2.102   1_545  S
O609        C627   1.274       .  A
O609       Cd618   2.071       .  S
O610        C624   1.273       .  A
O610       Cd912   2.075       .  S
O611        C622   1.272       .  A
O611       Cd614   2.056       .  S
Zn612       O623   2.048   1_556  S
Zn612       O625   2.016       .  S
Zn612       O617   1.956   1_545  S
O613        C624   1.276       .  A
Cd614       O908   2.079   1_545  S
Cd614       O616   2.056       .  S
Cd615       O619   2.100       .  S
Cd615       O926   2.091       .  S
Cd615       O617   2.024       .  S
O617       Cd916   1.996       .  S
Cd618       O620   2.064   1_556  S
Cd618       O915   1.995       .  S
O619        C626   1.279       .  A
O620        C905   1.274       .  A
C621        C794   1.481       .  S
C621        O625   1.274       .  A
C622        C866   1.479       .  S
C624        C776   1.483       .  S
C626        C814   1.475       .  S
C627        C886   1.480       .  S
C627        O628   1.278       .  A
O628       Cd913   2.092       .  S
C629        C630   1.400       .  A
C629        C634   1.410       .  A
C629        C778   1.484       .  S
C630        C631   1.403       .  A
C630        H635   1.082       .  S
C631        C632   1.401       .  A
C631        C758   1.488       .  S
C632        C633   1.411       .  A
C632        H636   1.083       .  S
C633        C634   1.411       .  A
C633        C796   1.492       .  S
C634        H637   1.084   1_554  S
C638        C639   1.405       .  A
C638        C740   1.483       .  S
C639        H644   1.084       .  S
C640        C939   1.406   1_545  A
C640        C830   1.492       .  S
C641        C938   1.405       .  A
C641        C642   1.406       .  A
C641        H645   1.082       .  S
C642        C941   1.412       .  A
C642        C722   1.488       .  S
C643        C940   1.409   1_545  A
C643        H646   1.083   1_545  S
O647        C663   1.274       .  A
O647       Zn653   2.028       .  S
C648        C850   1.481       .  S
C648        O664   1.275       .  A
C648        O661   1.276       .  A
O649        C662   1.272       .  A
O649       Cd656   2.061       .  S
O650        C668   1.274       .  A
O650       Cd659   2.076       .  S
O651        C665   1.274       .  A
O651       Cd655   2.065       .  S
O652        C663   1.275       .  A
O652       Cd655   2.076       .  S
Zn653       O664   2.028       .  S
Zn653       O666   2.004       .  S
Zn653       O658   1.943       .  S
O654        C665   1.275       .  A
O654       Cd659   2.063       .  S
Cd655       O657   2.069       .  S
Cd655       O658   2.001       .  S
Cd656       O660   2.074       .  S
Cd656       O669   2.084       .  S
Cd656       O658   2.008       .  S
O657        C667   1.274       .  A
O658       Cd659   1.998       .  S
Cd659       O661   2.076       .  S
O660        C667   1.276       .  A
C662        C688   1.469       .  S
C662        O666   1.275       .  A
C663        C742   1.480       .  S
C665        C704   1.469       .  S
C667        C760   1.475       .  S
C668        C724   1.482       .  S
C668        O669   1.277       .  A
C670        C671   1.407       .  A
C670        C706   1.478       .  S
C671        H676   1.082       .  S
C672        C971   1.401       .  A
C672       C1110   1.486       .  S
C673        C970   1.400       .  A
C673        C674   1.405       .  A
C673        H677   1.084       .  S
C674        C675   1.397       .  A
C674        C686   1.472       .  S
C675        H678   1.085       .  S
C679        C680   1.400       .  A
C679        C684   1.407       .  A
C679        C687   1.475       .  S
C680        C681   1.394       .  A
C680        H689   1.083       .  S
C681        C682   1.406       .  A
C681        H690   1.083       .  S
C682        C683   1.400       .  A
C682        C685   1.473       .  S
C683        C684   1.396       .  A
C683        H691   1.084       .  S
C684        H692   1.082       .  S
C685        H693   1.087       .  S
C685        C686   1.340       .  D
C686        H694   1.087       .  S
C687        H695   1.087       .  S
C687        C688   1.341       .  D
C688        H696   1.086       .  S
C697        C698   1.401       .  A
C697        C702   1.406       .  A
C697        C705   1.477       .  S
C698        C699   1.395       .  A
C698        H707   1.083       .  S
C699        C700   1.405       .  A
C699        H708   1.083       .  S
C700        C701   1.402       .  A
C700        C703   1.477       .  S
C701        C702   1.398       .  A
C701        H709   1.083       .  S
C702        H710   1.082       .  S
C703        H711   1.087       .  S
C703        C704   1.343       .  D
C704        H712   1.086       .  S
C705        H713   1.087       .  S
C705        C706   1.343       .  D
C706        H714   1.086       .  S
C715        C716   1.404       .  A
C715        C720   1.410       .  A
C715        C723   1.492       .  S
C716        C717   1.398       .  A
C716        H725   1.084       .  S
C717        C718   1.408       .  A
C717        H726   1.082       .  S
C718        C719   1.404       .  A
C718        C721   1.492       .  S
C719        C720   1.403       .  A
C719        H727   1.083       .  S
C720        H728   1.081       .  S
C721        H729   1.086       .  S
C721        C722   1.347       .  D
C722        H730   1.086       .  S
C723        H731   1.087       .  S
C723        C724   1.347       .  D
C724        H732   1.085       .  S
C733        C734   1.405       .  A
C733        C738   1.408       .  A
C733        C741   1.490       .  S
C734        C735   1.401       .  A
C734        H743   1.083       .  S
C735        C736   1.406       .  A
C735        H744   1.082       .  S
C736        C737   1.403       .  A
C736        C739   1.483       .  S
C737        C738   1.398       .  A
C737        H745   1.084       .  S
C738        H746   1.081       .  S
C739        H747   1.088       .  S
C739        C740   1.347       .  D
C740        H748   1.086       .  S
C741        H749   1.087       .  S
C741        C742   1.347       .  D
C742        H750   1.085       .  S
C751        C752   1.404       .  A
C751        C756   1.406       .  A
C751        C759   1.486       .  S
C752        C753   1.400       .  A
C752        H761   1.083       .  S
C753        C754   1.408       .  A
C753        H762   1.080       .  S
C754        C755   1.404       .  A
C754        C757   1.487       .  S
C755        C756   1.396       .  A
C755        H763   1.084       .  S
C756        H764   1.081       .  S
C757        H765   1.085       .  S
C757        C758   1.349       .  D
C758        H766   1.084       .  S
C759        H767   1.087       .  S
C759        C760   1.346       .  D
C760        H768   1.085       .  S
C769        C770   1.404       .  A
C769        C774   1.407       .  A
C769        C777   1.492       .  S
C770        C771   1.403       .  A
C770        H779   1.084       .  S
C771        C772   1.411       .  A
C771        H780   1.080       .  S
C772        C773   1.404       .  A
C772        C775   1.495       .  S
C773        C774   1.398       .  A
C773        H781   1.083       .  S
C774        H782   1.082   1_556  S
C775        H783   1.087       .  S
C775        C776   1.348       .  D
C776        H784   1.084       .  S
C777        H785   1.085       .  S
C777        C778   1.345   1_556  D
C778        H786   1.086       .  S
C787        C788   1.403       .  A
C787        C792   1.408       .  A
C787        C795   1.491   1_556  S
C788        C789   1.397       .  A
C788        H797   1.084   1_556  S
C789        C790   1.409       .  A
C789        H798   1.081       .  S
C790        C791   1.407       .  A
C790        C793   1.497       .  S
C791        C792   1.405       .  A
C791        H799   1.083       .  S
C792        H800   1.082       .  S
C793        H801   1.087       .  S
C793        C794   1.349       .  D
C794        H802   1.084       .  S
C795        H803   1.087       .  S
C795        C796   1.350       .  D
C796        H804   1.085   1_554  S
C805        C806   1.405       .  A
C805        C813   1.491       .  S
C806        C807   1.401       .  A
C806        H815   1.083       .  S
C807        H816   1.082       .  S
C808        C809   1.402       .  A
C808        C811   1.486       .  S
C809        C810   1.397       .  A
C809        H817   1.083       .  S
C810        H818   1.081       .  S
C811        H819   1.086       .  S
C812        C970   1.485       .  S
C812       H1118   1.086       .  S
C813        H821   1.087       .  S
C813       C1112   1.347       .  D
C814       C1111   1.344   1_565  D
H820       C1110   1.086       .  S
C823        C824   1.403       .  A
C823        C831   1.485       .  S
C824        C825   1.399       .  A
C824        H833   1.083       .  S
C825        H834   1.082       .  S
C826        C827   1.403       .  A
C826        C829   1.491       .  S
C827        C828   1.396       .  A
C827        H835   1.084       .  S
C828        H836   1.081       .  S
C829        H837   1.085       .  S
C829       C1128   1.348       .  D
C830       C1127   1.349   1_545  D
C831        H839   1.087       .  S
C832       H1138   1.084       .  S
H840       C1130   1.084       .  S
C841        C842   1.405       .  A
C841        C846   1.410       .  A
C841        C849   1.494       .  S
C842        C843   1.399       .  A
C842        H851   1.083       .  S
C843        C844   1.407       .  A
C843        H852   1.081       .  S
C844        C845   1.404       .  A
C844        C847   1.492       .  S
C845        C846   1.401       .  A
C845        H853   1.084       .  S
C846        H854   1.079       .  S
C847        H855   1.085       .  S
C847        C848   1.350       .  D
C848        H856   1.085       .  S
C849        H857   1.087       .  S
C849        C850   1.349       .  D
C850        H858   1.082       .  S
C859        C860   1.402       .  A
C859        C864   1.408       .  A
C859        C867   1.487       .  S
C860        C861   1.397       .  A
C860        H869   1.084       .  S
C861        C862   1.408       .  A
C861        H870   1.081       .  S
C862        C863   1.406       .  A
C862        C865   1.495       .  S
C863        C864   1.404       .  A
C863        H871   1.083       .  S
C864        H872   1.082       .  S
C865        H873   1.086       .  S
C865        C866   1.348       .  D
C866        H874   1.084       .  S
C867        H875   1.087       .  S
C867        C868   1.347       .  D
C868        H876   1.084       .  S
C877        C878   1.405       .  A
C877        C882   1.407       .  A
C877        C885   1.489       .  S
C878        C879   1.404       .  A
C878        H887   1.083       .  S
C879        C880   1.407       .  A
C879        H888   1.083       .  S
C880        C881   1.402       .  A
C880        C883   1.486       .  S
C881        C882   1.398       .  A
C881        H889   1.083       .  S
C882        H890   1.082       .  S
C883        H891   1.087       .  S
C883        C884   1.347       .  D
C884        H892   1.086       .  S
C885        H893   1.087       .  S
C885        C886   1.347       .  D
C886        H894   1.086       .  S
C895        C896   1.409       .  A
C895        C900   1.404       .  A
C895       C1166   1.485       .  S
C896        C897   1.408       .  A
C896        H901   1.080       .  S
C897        C898   1.401       .  A
C897       C1146   1.488       .  S
C898        C899   1.403       .  A
C898        H902   1.084       .  S
C899        C900   1.403       .  A
C899       C1182   1.482       .  S
C900        H903   1.081       .  S
O904        C920   1.277       .  A
C905       C1130   1.477       .  S
C905        O921   1.278       .  A
O906        C919   1.278       .  A
O906       Cd913   2.094       .  S
O907        C925   1.274       .  A
O907       Cd916   2.066       .  S
O908        C922   1.274       .  A
O909        C920   1.272       .  A
O909       Cd912   2.055       .  S
Zn910       O921   2.041   1_556  S
Zn910       O923   2.007       .  S
Zn910       O915   1.957       .  S
O911        C922   1.275       .  A
Cd912       O914   2.057       .  S
Cd913       O917   2.087       .  S
Cd913       O915   2.021       .  S
Cd916       O918   2.061   1_556  S
O917        C924   1.278       .  A
C919       C1092   1.478       .  S
C919        O923   1.273       .  A
C920       C1164   1.476       .  S
C922       C1074   1.483       .  S
C924       C1112   1.476       .  S
C925       C1184   1.477       .  S
C925        O926   1.278       .  A
C927        C928   1.400       .  A
C927        C932   1.406       .  A
C927       C1076   1.480       .  S
C928        C929   1.406       .  A
C928        H933   1.082       .  S
C929        C930   1.403       .  A
C929       C1056   1.491       .  S
C930        C931   1.411       .  A
C930        H934   1.083       .  S
C931        C932   1.408       .  A
C931       C1094   1.490       .  S
C932        H935   1.084   1_554  S
C936        C937   1.406   1_455  A
C936       C1038   1.484   1_455  S
C937        H942   1.084       .  S
C938       C1128   1.490       .  S
C939        C940   1.406       .  A
C939        H943   1.082       .  S
C940       C1020   1.485       .  S
C941        H944   1.082       .  S
O945        C961   1.273       .  A
O945       Zn951   2.022       .  S
C946       C1148   1.476       .  S
C946        O962   1.274       .  A
C946        O959   1.276       .  A
O947        C960   1.273       .  A
O947       Cd954   2.069       .  S
O948        C966   1.274       .  A
O948       Cd957   2.073       .  S
O949        C963   1.274       .  A
O949       Cd953   2.072       .  S
O950        C961   1.275       .  A
O950       Cd953   2.076       .  S
Zn951       O962   2.019       .  S
Zn951       O964   2.011       .  S
Zn951       O956   1.944       .  S
O952        C963   1.275       .  A
O952       Cd957   2.065       .  S
Cd953       O955   2.070       .  S
Cd953       O956   2.001       .  S
Cd954       O958   2.080       .  S
Cd954       O967   2.076       .  S
Cd954       O956   2.007       .  S
O955        C965   1.275       .  A
O956       Cd957   2.001       .  S
Cd957       O959   2.073       .  S
O958        C965   1.277       .  A
C960        C986   1.473       .  S
C960        O964   1.275       .  A
C961       C1040   1.478       .  S
C963       C1002   1.472       .  S
C965       C1058   1.476       .  S
C966       C1022   1.480       .  S
C966        O967   1.276       .  A
C968        C969   1.407       .  A
C968       C1004   1.477   1_455  S
C969        H974   1.082   1_455  S
C971        C972   1.407       .  A
C971        H975   1.084       .  S
C972        C973   1.401       .  A
C972        C984   1.478       .  S
C973        H976   1.084       .  S
C977        C978   1.402       .  A
C977        C982   1.406       .  A
C977        C985   1.479       .  S
C978        C979   1.397       .  A
C978        H987   1.083       .  S
C979        C980   1.406       .  A
C979        H988   1.083       .  S
C980        C981   1.401       .  A
C980        C983   1.478       .  S
C981        C982   1.397       .  A
C981        H989   1.084       .  S
C982        H990   1.082       .  S
C983        H991   1.087       .  S
C983        C984   1.343       .  D
C984        H992   1.086       .  S
C985        H993   1.087       .  S
C985        C986   1.343       .  D
C986        H994   1.086       .  S
C995        C996   1.402       .  A
C995       C1000   1.406       .  A
C995       C1003   1.478       .  S
C996        C997   1.396       .  A
C996       H1005   1.083       .  S
C997        C998   1.405       .  A
C997       H1006   1.083       .  S
C998        C999   1.402       .  A
C998       C1001   1.478       .  S
C999       C1000   1.398       .  A
C999       H1007   1.083       .  S
C1000      H1008   1.082       .  S
C1001      H1009   1.087       .  S
C1001      C1002   1.343       .  D
C1002      H1010   1.086       .  S
C1003      H1011   1.087       .  S
C1003      C1004   1.342       .  D
C1004      H1012   1.087       .  S
C1013      C1014   1.403       .  A
C1013      C1018   1.410       .  A
C1013      C1021   1.489       .  S
C1014      C1015   1.397       .  A
C1014      H1023   1.084       .  S
C1015      C1016   1.406       .  A
C1015      H1024   1.083       .  S
C1016      C1017   1.403       .  A
C1016      C1019   1.487       .  S
C1017      C1018   1.401       .  A
C1017      H1025   1.083       .  S
C1018      H1026   1.081       .  S
C1019      H1027   1.086       .  S
C1019      C1020   1.347       .  D
C1020      H1028   1.087       .  S
C1021      H1029   1.087       .  S
C1021      C1022   1.346       .  D
C1022      H1030   1.085       .  S
C1031      C1032   1.406       .  A
C1031      C1036   1.406       .  A
C1031      C1039   1.488       .  S
C1032      C1033   1.403       .  A
C1032      H1041   1.083       .  S
C1033      C1034   1.406       .  A
C1033      H1042   1.083       .  S
C1034      C1035   1.402       .  A
C1034      C1037   1.483       .  S
C1035      C1036   1.397       .  A
C1035      H1043   1.083       .  S
C1036      H1044   1.082       .  S
C1037      H1045   1.088       .  S
C1037      C1038   1.347       .  D
C1038      H1046   1.086   1_655  S
C1039      H1047   1.087       .  S
C1039      C1040   1.347       .  D
C1040      H1048   1.086       .  S
C1049      C1050   1.406       .  A
C1049      C1054   1.409       .  A
C1049      C1057   1.494       .  S
C1050      C1051   1.401       .  A
C1050      H1059   1.083       .  S
C1051      C1052   1.409       .  A
C1051      H1060   1.080       .  S
C1052      C1053   1.402       .  A
C1052      C1055   1.490       .  S
C1053      C1054   1.395       .  A
C1053      H1061   1.084       .  S
C1054      H1062   1.079       .  S
C1055      H1063   1.085       .  S
C1055      C1056   1.349       .  D
C1056      H1064   1.084       .  S
C1057      H1065   1.087       .  S
C1057      C1058   1.348       .  D
C1058      H1066   1.082       .  S
C1067      C1068   1.403       .  A
C1067      C1072   1.406       .  A
C1067      C1075   1.489       .  S
C1068      C1069   1.401       .  A
C1068      H1077   1.083       .  S
C1069      C1070   1.409       .  A
C1069      H1078   1.081       .  S
C1070      C1071   1.405       .  A
C1070      C1073   1.492       .  S
C1071      C1072   1.399       .  A
C1071      H1079   1.083       .  S
C1072      H1080   1.082       .  S
C1073      H1081   1.087       .  S
C1073      C1074   1.348       .  D
C1074      H1082   1.085       .  S
C1075      H1083   1.086       .  S
C1075      C1076   1.344   1_556  D
C1076      H1084   1.086       .  S
C1085      C1086   1.403   1_556  A
C1085      C1090   1.408       .  A
C1085      C1093   1.488   1_556  S
C1086      C1087   1.397   1_554  A
C1086      H1095   1.084       .  S
C1087      C1088   1.409       .  A
C1087      H1096   1.081       .  S
C1088      C1089   1.405       .  A
C1088      C1091   1.493       .  S
C1089      C1090   1.402       .  A
C1089      H1097   1.083       .  S
C1090      H1098   1.081       .  S
C1091      H1099   1.087       .  S
C1091      C1092   1.347       .  D
C1092      H1100   1.084       .  S
C1093      H1101   1.086       .  S
C1093      C1094   1.349       .  D
C1094      H1102   1.085   1_554  S
C1103      C1104   1.403       .  A
C1103      C1111   1.489       .  S
C1104      C1105   1.401       .  A
C1104      H1113   1.083       .  S
C1105      H1114   1.082       .  S
C1106      C1107   1.402   1_455  A
C1106      C1109   1.487   1_455  S
C1107      C1108   1.397       .  A
C1107      H1115   1.084       .  S
C1108      H1116   1.081       .  S
C1109      H1117   1.086       .  S
C1111      H1119   1.087       .  S
C1121      C1122   1.403   1_655  A
C1121      C1129   1.487       .  S
C1122      C1123   1.400       .  A
C1122      H1131   1.083       .  S
C1123      H1132   1.082       .  S
C1124      C1125   1.403       .  A
C1124      C1127   1.490       .  S
C1125      C1126   1.399       .  A
C1125      H1133   1.083       .  S
C1126      H1134   1.081       .  S
C1127      H1135   1.085       .  S
C1129      H1137   1.087       .  S
C1139      C1140   1.403       .  A
C1139      C1144   1.408       .  A
C1139      C1147   1.486       .  S
C1140      C1141   1.398       .  A
C1140      H1149   1.083       .  S
C1141      C1142   1.408       .  A
C1141      H1150   1.082       .  S
C1142      C1143   1.403       .  A
C1142      C1145   1.486       .  S
C1143      C1144   1.398       .  A
C1143      H1151   1.083       .  S
C1144      H1152   1.081       .  S
C1145      H1153   1.083       .  S
C1145      C1146   1.347       .  D
C1146      H1154   1.085       .  S
C1147      H1155   1.087       .  S
C1147      C1148   1.345       .  D
C1148      H1156   1.085       .  S
C1157      C1158   1.402       .  A
C1157      C1162   1.407       .  A
C1157      C1165   1.484       .  S
C1158      C1159   1.397       .  A
C1158      H1167   1.084       .  S
C1159      C1160   1.409       .  A
C1159      H1168   1.081       .  S
C1160      C1161   1.405       .  A
C1160      C1163   1.492       .  S
C1161      C1162   1.402       .  A
C1161      H1169   1.083       .  S
C1162      H1170   1.082       .  S
C1163      H1171   1.086       .  S
C1163      C1164   1.347       .  D
C1164      H1172   1.084       .  S
C1165      H1173   1.087       .  S
C1165      C1166   1.346       .  D
C1166      H1174   1.086       .  S
C1175      C1176   1.405       .  A
C1175      C1180   1.406       .  A
C1175      C1183   1.486       .  S
C1176      C1177   1.402       .  A
C1176      H1185   1.083       .  S
C1177      C1178   1.407       .  A
C1177      H1186   1.083       .  S
C1178      C1179   1.401       .  A
C1178      C1181   1.481       .  S
C1179      C1180   1.396       .  A
C1179      H1187   1.083       .  S
C1180      H1188   1.082       .  S
C1181      H1189   1.087       .  S
C1181      C1182   1.345       .  D
C1182      H1190   1.083       .  S
C1183      H1191   1.087       .  S
C1183      C1184   1.345       .  D
C1184      H1192   1.086       .  S
