geometry optimzed in LAMMPS
_audit_creation_date              2020-11-30 
_audit_creation_method            'lammps2cif' 
_symmetry_space_group_name_H-M    'P1' 
_symmetry_Int_Tables_number       1 
_symmetry_cell_setting            triclinic 
loop_ 
_symmetry_equiv_pos_as_xyz 
  x,y,z 
_cell_length_a                    32.08804960509187 
_cell_length_b                    32.24625423825543 
_cell_length_c                    31.024405309230474 
_cell_angle_alpha                 89.73698258895328 
_cell_angle_beta                  90.08981642555909 
_cell_angle_gamma                 126.51635330970714 
loop_ 
_atom_site_label 
_atom_site_type_symbol 
_atom_site_fract_x 
_atom_site_fract_y 
_atom_site_fract_z 
_atom_site_charge 
C1          C  0.81000485  0.39517858  0.03337025     0.02660
C2          C  0.78663445  0.39131422  0.99417575    -0.13490
C3          C  0.81341104  0.40141861  0.45565889     0.00160
C4          C  0.86506590  0.41879647  0.45638828    -0.12010
C5          C  0.88999623  0.42273370  0.49559171     0.02660
C6          C  0.86076142  0.40947543  0.03408541    -0.11430
H7          H  0.74639558  0.37724152  0.99348841     0.08250
H8          H  0.88401195  0.42757499  0.42557517     0.05780
H9          H  0.87592899  0.40887483  0.06493342     0.05630
C10         C  0.45489204  0.02864584  0.04277573     0.02660
C11         C  0.46741361  0.05679672  0.50463510    -0.13460
C12         C  0.46366439  0.03453670  0.46497242     0.00160
C13         C  0.44839708  0.98367884  0.46366313    -0.12010
C14         C  0.43368313  0.95347819  0.50176438     0.02660
C15         C  0.43592920  0.97681457  0.04115603    -0.11430
H16         H  0.48123966  0.09671938  0.50591723     0.08250
H17         H  0.44929276  0.96899608  0.43276902     0.05780
H18         H  0.42371673  0.95595506  0.07128825     0.05630
C19         C  0.45307158  0.36169574  0.03853589     0.02660
C20         C  0.47036074  0.35414035  0.50015328    -0.13490
C21         C  0.46688798  0.37378130  0.46107396     0.00160
C22         C  0.44788403  0.40339370  0.46105394    -0.12010
C23         C  0.42829802  0.40999367  0.49922858     0.02660
C24         C  0.43077691  0.38803239  0.03777291    -0.11430
H25         H  0.48672831  0.33287394  0.50079743     0.08250
H26         H  0.44893391  0.42116451  0.43107463     0.05780
H27         H  0.41519245  0.39045948  0.06767383     0.05630
Fe28       Fe  0.60957466  0.23507706  0.24864902     1.65780
Fe29       Fe  0.61261913  0.34266331  0.24400628     1.73250
Fe30       Fe  0.49595446  0.22262412  0.25360311     1.54410
O31         O  0.48571199  0.16951539  0.20903380    -0.82140
O32         O  0.57514242  0.34629955  0.29630347    -0.80440
O33         O  0.56140274  0.18180436  0.20261661    -0.84650
O34         O  0.56610272  0.18472120  0.29825147    -0.79500
O35         O  0.48735060  0.25953021  0.20367718    -0.81280
O36         O  0.66995912  0.35754909  0.28651230    -0.84020
C37         C  0.52380503  0.16836057  0.31691936     0.96750
C38         C  0.51456799  0.15956728  0.19145802     1.04180
O39         O  0.57259918  0.26676394  0.24869559    -1.13000
O40         O  0.65455924  0.34714783  0.19118476    -0.75440
O41         O  0.65902174  0.28143699  0.19948502    -0.78920
O42         O  0.49421327  0.17988359  0.30440000    -0.79610
C43         C  0.67089159  0.32144260  0.17944000     0.95650
O44         O  0.66146028  0.28460428  0.29456408    -0.77570
O45         O  0.56098879  0.33897800  0.20129817    -0.82760
C46         C  0.53022024  0.31575992  0.31262700     0.98270
C47         C  0.51497868  0.30511895  0.18861933     1.04190
O48         O  0.49686882  0.27036817  0.29866940    -0.78410
C49         C  0.68246675  0.33115952  0.30471905     1.02490
C50         C  0.02253799  0.46128829  0.45705327     0.02660
C51         C  0.97077978  0.44359012  0.45717882    -0.13490
C52         C  0.94498087  0.43874197  0.49602196     0.00160
C53         C  0.97328714  0.45074690  0.03496359    -0.12010
C54         C  0.02396703  0.46474607  0.03496398     0.02660
C55         C  0.04839292  0.47031860  0.49596268    -0.11430
H56         H  0.95228810  0.43488039  0.42618418     0.08250
H57         H  0.95733624  0.45040880  0.06564133     0.05780
H58         H  0.08851098  0.48398390  0.49582566     0.05630
C59         C  0.38837913  0.81996999  0.46149806     0.02660
C60         C  0.40309038  0.87061060  0.46190223    -0.13490
C61         C  0.41715298  0.89873744  0.50083950     0.00160
C62         C  0.41435313  0.87330937  0.03927757    -0.12010
C63         C  0.39600641  0.82155981  0.03929198     0.02660
C64         C  0.38394980  0.79541992  0.50025733    -0.11430
H65         H  0.40272377  0.88692550  0.43158167     0.08250
H66         H  0.42574195  0.89255983  0.06999961     0.05780
H67         H  0.36925295  0.75521734  0.50010022     0.05630
C68         C  0.36240044  0.47086105  0.46031117     0.02660
C69         C  0.35702130  0.48927278  0.49905804    -0.13490
C70         C  0.37397204  0.48183954  0.03771882     0.00160
C71         C  0.39935453  0.45851612  0.03751592    -0.12010
C72         C  0.40473885  0.43873318  0.49897269     0.02660
C73         C  0.38539024  0.44503391  0.46045864    -0.11430
H74         H  0.33853283  0.50851746  0.49931911     0.08250
H75         H  0.41407257  0.45576068  0.06787383     0.05780
H76         H  0.38650687  0.42889388  0.43042056     0.05630
Fe77       Fe  0.22775349  0.61809883  0.24765539     1.65780
Fe78       Fe  0.21825532  0.50713713  0.24483572     1.73250
Fe79       Fe  0.33718820  0.62414909  0.25221535     1.54420
O80         O  0.34978551  0.68003430  0.20905090    -0.82140
O81         O  0.25423877  0.50144305  0.29743561    -0.80440
O82         O  0.27368702  0.66574620  0.19789021    -0.84650
O83         O  0.27729899  0.67260661  0.29266431    -0.79500
O84         O  0.34170247  0.58725762  0.20046430    -0.81280
O85         O  0.16186815  0.49650518  0.28662026    -0.84020
C86         C  0.31653532  0.68416997  0.31394851     0.96750
C87         C  0.32133670  0.68917371  0.18919117     1.04180
O88         O  0.26111747  0.58304519  0.24826094    -1.13000
O89         O  0.17797500  0.50450816  0.19146948    -0.75440
O90         O  0.17311109  0.56961786  0.20216145    -0.78920
O91         O  0.34080536  0.66549878  0.30466791    -0.79610
C92         C  0.16117792  0.53027231  0.18124479     0.95650
O93         O  0.17914878  0.57341867  0.29764415    -0.77570
O94         O  0.26886362  0.50754673  0.20299626    -0.82760
C95         C  0.30083810  0.52908921  0.31064990     0.98270
C96         C  0.31373200  0.54100666  0.18744015     1.04190
O97         O  0.33505720  0.57365350  0.29532973    -0.78410
C98         C  0.15458498  0.52588861  0.30689249     1.02490
C99         C  0.31569830  0.50910296  0.34603241    -0.06590
C100        C  0.27968439  0.47957378  0.37893888    -0.17720
C101        C  0.29282787  0.46384748  0.41519242     0.10610
C102        C  0.34391554  0.47899854  0.41965307    -0.06510
C103        C  0.37928430  0.50590794  0.38574748    -0.17750
C104        C  0.36548749  0.52025299  0.34876039     0.10640
S105        S  0.24246117  0.42430054  0.45442765    -0.32710
S106        S  0.41259718  0.55127503  0.30585199    -0.32720
H107        H  0.37593757  0.52757986  0.27234869     0.28650
H108        H  0.26163105  0.39705751  0.96804600     0.28640
H109        H  0.24111447  0.46918818  0.37700956     0.19240
H110        H  0.41822730  0.51659475  0.38841436     0.19240
C111        C  0.33290103  0.52517543  0.15190086    -0.06590
C112        C  0.29761596  0.47643795  0.13292654    -0.17720
C113        C  0.31123268  0.46085330  0.09688794     0.10610
C114        C  0.36086932  0.49473116  0.07863612    -0.06510
C115        C  0.39708171  0.54228171  0.09814755    -0.17750
C116        C  0.38419888  0.55747971  0.13497516     0.10640
S117        S  0.26485002  0.39788968  0.07373510    -0.32710
S118        S  0.43559692  0.61801657  0.15861430    -0.32720
H119        H  0.42578097  0.59759809  0.20068008     0.28650
H120        H  0.22539089  0.38054939  0.60431428     0.28640
H121        H  0.25868371  0.45070779  0.14566548     0.19240
H122        H  0.43563093  0.56781418  0.08445592     0.19240
C123        C  0.33509036  0.72107268  0.35069111    -0.06590
C124        C  0.38252300  0.73869871  0.37046985    -0.17720
C125        C  0.40210111  0.77300685  0.40515884     0.10610
C126        C  0.37403516  0.79065426  0.42092560    -0.06510
C127        C  0.32779077  0.77482842  0.40071990    -0.17750
C128        C  0.30751207  0.73979822  0.36653622     0.10640
S129        S  0.46295200  0.79252969  0.42820548    -0.32710
S130        S  0.24487004  0.71886295  0.34702577    -0.32720
H131        H  0.22221754  0.66627262  0.35414063     0.28650
H132        H  0.47820197  0.84079719  0.44317328     0.28640
H133        H  0.40478339  0.72565328  0.35901292     0.19240
H134        H  0.30578932  0.78773626  0.41327901     0.19240
C135        C  0.38325829  0.79292625  0.08046833    -0.06590
C136        C  0.34680963  0.79030078  0.10759267    -0.17720
C137        C  0.32724982  0.75825311  0.14407706     0.10610
C138        C  0.34426936  0.72759230  0.15363171    -0.06510
C139        C  0.38269226  0.73221789  0.12758327    -0.17750
C140        C  0.40253726  0.76470254  0.09138621     0.10640
S141        S  0.28162311  0.75805411  0.17846081    -0.32710
S142        S  0.45228123  0.76845545  0.06050677    -0.32720
H143        H  0.47596372  0.81887609  0.54487370     0.28650
H144        H  0.27772802  0.79229664  0.15376583     0.28640
H145        H  0.33249589  0.81239781  0.09929387     0.19240
H146        H  0.39659737  0.70949276  0.13488334     0.19240
C147        C  0.12582153  0.51379537  0.14380791    -0.06590
C148        C  0.08920006  0.46083560  0.13561650    -0.17720
C149        C  0.05359193  0.44338507  0.10167024     0.10610
C150        C  0.05448272  0.47959422  0.07509481    -0.06510
C151        C  0.09084129  0.53234577  0.08324223    -0.17750
C152        C  0.12685885  0.54983169  0.11662057     0.10640
S153        S  0.00993899  0.37473411  0.09280147    -0.32710
S154        S  0.17577061  0.61855043  0.12024451    -0.32720
H155        H  0.21659190  0.61449738  0.12702834     0.28650
H156        H  0.96949745  0.37399546  0.07450083     0.28640
H157        H  0.08802109  0.43276610  0.15599322     0.19240
H158        H  0.09275505  0.56024848  0.06201911     0.19240
C159        C  0.11648995  0.50481161  0.34308523    -0.06590
C160        C  0.09566380  0.53125358  0.35450624    -0.17720
C161        C  0.06402758  0.51712747  0.39080077     0.10610
C162        C  0.05150096  0.47466725  0.41617820    -0.06510
C163        C  0.06999101  0.44662382  0.40399324    -0.17750
C164        C  0.10235791  0.46119449  0.36811357     0.10640
S165        S  0.04282638  0.55631738  0.40396278    -0.32710
S166        S  0.12736355  0.42487506  0.35871178    -0.32720
H167        H  0.17788525  0.47014918  0.35490574     0.28650
H168        H  0.04677385  0.55393977  0.44891236     0.28640
H169        H  0.10533670  0.56435886  0.33577017     0.19240
H170        H  0.06062830  0.41417530  0.42359415     0.19240
C171        C  0.46140845  0.34464746  0.07989578    -0.06590
C172        C  0.49265222  0.38205691  0.11116014    -0.17720
C173        C  0.50806868  0.36967594  0.14827634     0.10610
C174        C  0.49325407  0.31895571  0.15392201    -0.06510
C175        C  0.45864029  0.28091909  0.12422133    -0.17750
C176        C  0.44260032  0.29304915  0.08744899     0.10640
S177        S  0.54517090  0.41992650  0.18762456    -0.32710
S178        S  0.39851714  0.24105289  0.05133015    -0.32720
H179        H  0.37483723  0.26333464  0.53556805     0.28650
H180        H  0.52208629  0.38680087  0.22355303     0.28640
H181        H  0.50613987  0.42153623  0.10614453     0.19240
H182        H  0.44455261  0.24150707  0.12914077     0.19240
C183        C  0.51591267  0.33347386  0.34974627    -0.06590
C184        C  0.46802133  0.32579593  0.34916238    -0.17720
C185        C  0.45128115  0.33941533  0.38441129     0.10610
C186        C  0.48392201  0.36305948  0.42079274    -0.06510
C187        C  0.53258096  0.37229307  0.42055178    -0.17750
C188        C  0.54820016  0.35652280  0.38624638     0.10640
S189        S  0.38673581  0.32253632  0.38177331    -0.32710
S190        S  0.60745106  0.36270058  0.39311246    -0.32720
H191        H  0.59060577  0.31707107  0.37129629     0.28650
H192        H  0.37435344  0.30691873  0.42512706     0.28640
H193        H  0.44278741  0.30770394  0.32145369     0.19240
H194        H  0.55772690  0.38981153  0.44837514     0.19240
C195        C  0.50869494  0.13453781  0.35494172    -0.06590
C196        C  0.45879578  0.08765850  0.35666396    -0.17720
C197        C  0.44316975  0.05368813  0.39163641     0.10610
C198        C  0.47846534  0.06641694  0.42546797    -0.06510
C199        C  0.52845160  0.11309908  0.42343057    -0.17750
C200        C  0.54364917  0.14745174  0.38906138     0.10640
S201        S  0.37744049  0.99569831  0.39165021    -0.32710
S202        S  0.60719469  0.20821797  0.39195306    -0.32720
H203        H  0.59301000  0.23760525  0.37247420     0.28650
H204        H  0.36993375  0.99405461  0.43643277     0.28640
H205        H  0.43175431  0.07750659  0.33062475     0.19240
H206        H  0.55549842  0.12351161  0.44953923     0.19240
C207        C  0.46495412  0.05531355  0.08431963    -0.06590
C208        C  0.43963961  0.07779335  0.09283587    -0.17720
C209        C  0.45389755  0.11082396  0.12784580     0.10610
C210        C  0.49372080  0.12099679  0.15611559    -0.06510
C211        C  0.51679991  0.09578680  0.14879718    -0.17750
C212        C  0.50350573  0.06387228  0.11306828     0.10640
S213        S  0.42365688  0.14286895  0.13144853    -0.32710
S214        S  0.53951003  0.03796248  0.10464452    -0.32720
H215        H  0.54375596  0.04489708  0.05966774     0.28650
H216        H  0.47206090  0.19152905  0.13340812     0.28640
H217        H  0.41041780  0.07176440  0.07058880     0.19240
H218        H  0.54704613  0.10257149  0.17012869     0.19240
C219        C  0.72141503  0.35376034  0.34035572    -0.06590
C220        C  0.73191424  0.32156496  0.36038079    -0.17720
C221        C  0.76263712  0.33679827  0.39717858     0.10610
C222        C  0.78461264  0.38595213  0.41472695    -0.06510
C223        C  0.77755942  0.41982894  0.39365069    -0.17750
C224        C  0.74676655  0.40467672  0.35651384     0.10640
S225        S  0.77216832  0.29138088  0.42003770    -0.32710
S226        S  0.74435216  0.45333558  0.33062929    -0.32720
H227        H  0.69084124  0.42674267  0.33658103     0.28650
H228        H  0.77387170  0.30438444  0.46344269     0.28640
H229        H  0.71493556  0.28321784  0.34810997     0.19240
H230        H  0.79579345  0.45820515  0.40649869     0.19240
C231        C  0.70627043  0.33950931  0.14158746    -0.06590
C232        C  0.73557607  0.39194815  0.12967771    -0.17720
C233        C  0.77136101  0.41171270  0.09570508     0.10610
C234        C  0.77857305  0.37865234  0.07301058    -0.06510
C235        C  0.74973673  0.32653185  0.08465763    -0.17750
C236        C  0.71310541  0.30635855  0.11787487     0.10640
S237        S  0.80553047  0.47904092  0.08211140    -0.32710
S238        S  0.67396723  0.23740658  0.12567134    -0.32720
H239        H  0.62706165  0.23180026  0.12842430     0.28650
H240        H  0.84994365  0.48623136  0.06502264     0.28640
H241        H  0.73101046  0.41802418  0.14716371     0.19240
H242        H  0.75401694  0.30078245  0.06621828     0.19240
C243        C  0.80996721  0.39517888  0.53336791     0.02660
C244        C  0.78659938  0.39131555  0.49417182    -0.13490
C245        C  0.81344098  0.40141111  0.95566134     0.00160
C246        C  0.86509443  0.41878469  0.95638675    -0.12010
C247        C  0.89002994  0.42272777  0.99558886     0.02660
C248        C  0.86072396  0.40947678  0.53408594    -0.11430
H249        H  0.74635972  0.37724003  0.49348201     0.08250
H250        H  0.88403430  0.42755469  0.92557166     0.05780
H251        H  0.87588929  0.40887326  0.56493431     0.05630
C252        C  0.45490474  0.02866612  0.54277208     0.02660
C253        C  0.46740140  0.05677725  0.00463923    -0.13460
C254        C  0.46365246  0.03451827  0.96497609     0.00160
C255        C  0.44838419  0.98366003  0.96366587    -0.12010
C256        C  0.43366945  0.95345838  0.00176672     0.02660
C257        C  0.43594222  0.97683483  0.54115312    -0.11430
H258        H  0.48122772  0.09669997  0.00592217     0.08250
H259        H  0.44927962  0.96897775  0.93277143     0.05780
H260        H  0.42372981  0.95597567  0.57128552     0.05630
C261        C  0.45317166  0.36177089  0.53853725     0.02660
C262        C  0.47026642  0.35407334  0.00015174    -0.13490
C263        C  0.46678096  0.37370485  0.96107261     0.00160
C264        C  0.44775359  0.40329620  0.96105101    -0.12010
C265        C  0.42816575  0.40989147  0.99922688     0.02660
C266        C  0.43089604  0.38812556  0.53777385    -0.11430
H267        H  0.48665216  0.33282375  0.00079581     0.08250
H268        H  0.44879287  0.42105953  0.93107069     0.05780
H269        H  0.41531188  0.39055602  0.56767353     0.05630
Fe270      Fe  0.60957183  0.23507509  0.74866380     1.65780
Fe271      Fe  0.61261615  0.34266279  0.74403891     1.73250
Fe272      Fe  0.49594984  0.22262083  0.75361192     1.54410
O273        O  0.48571253  0.16952253  0.70903557    -0.82140
O274        O  0.57512443  0.34628822  0.79633090    -0.80440
O275        O  0.56139869  0.18180129  0.70263245    -0.84650
O276        O  0.56610180  0.18472210  0.79826797    -0.79500
O277        O  0.48735621  0.25953989  0.70368934    -0.81280
O278        O  0.66994562  0.35753969  0.78655158    -0.84020
C279        C  0.52379780  0.16835266  0.81692895     0.96750
C280        C  0.51456830  0.15957181  0.69146485     1.04180
O281        O  0.57259601  0.26676219  0.74871524    -1.13000
O282        O  0.65456789  0.34715926  0.69122118    -0.75440
O283        O  0.65901079  0.28143319  0.69949632    -0.78920
O284        O  0.49420190  0.17986869  0.80440358    -0.79610
C285        C  0.67088722  0.32144695  0.67946179     0.95650
O286        O  0.66146595  0.28460204  0.79457550    -0.77570
O287        O  0.56099790  0.33898598  0.70132507    -0.82760
C288        C  0.53019782  0.31574355  0.81264580     0.98270
C289        C  0.51499085  0.30513197  0.68863807     1.04190
O290        O  0.49685409  0.27035311  0.79868275    -0.78410
C291        C  0.68246466  0.33115223  0.80474284     1.02490
C292        C  0.02257125  0.46128317  0.95704363     0.02660
C293        C  0.97081562  0.44359308  0.95717047    -0.13490
C294        C  0.94501526  0.43873634  0.99601542     0.00160
C295        C  0.97325285  0.45075950  0.53497117    -0.12010
C296        C  0.02393330  0.46476027  0.53497333     0.02660
C297        C  0.04842615  0.47030664  0.99595190    -0.11430
H298        H  0.95232814  0.43489752  0.92617512     0.08250
H299        H  0.95730103  0.45042447  0.56564749     0.05780
H300        H  0.08854356  0.48397010  0.99581283     0.05630
C301        C  0.38836058  0.81994934  0.96149837     0.02660
C302        C  0.40307446  0.87059088  0.96190321    -0.13490
C303        C  0.41713718  0.89871687  0.00084090     0.00160
C304        C  0.41437100  0.87333158  0.53927658    -0.12010
C305        C  0.39602708  0.82158286  0.53929165     0.02660
C306        C  0.38392854  0.79539741  0.00025730    -0.11430
H307        H  0.40271018  0.88690731  0.93158272     0.08250
H308        H  0.42575918  0.89258264  0.56999837     0.05780
H309        H  0.36923021  0.75519441  0.00009953     0.05630
C310        C  0.36229383  0.47078876  0.96031397     0.02660
C311        C  0.35693674  0.48921711  0.99906121    -0.13490
C312        C  0.37406723  0.48190928  0.53771662     0.00160
C313        C  0.39947359  0.45860954  0.53751453    -0.12010
C314        C  0.40460720  0.43863166  0.99897371     0.02660
C315        C  0.38526034  0.44493840  0.96046105    -0.11430
H316        H  0.33847419  0.50848717  0.99932393     0.08250
H317        H  0.41419510  0.45586030  0.56787304     0.05780
H318        H  0.38636581  0.42879044  0.93042349     0.05630
Fe319      Fe  0.22776287  0.61810505  0.74763837     1.65780
Fe320      Fe  0.21826259  0.50714759  0.74479866     1.73250
Fe321      Fe  0.33719395  0.62415461  0.75220649     1.54420
O322        O  0.34979613  0.68005085  0.70905031    -0.82140
O323        O  0.25422184  0.50144770  0.79741348    -0.80440
O324        O  0.27369230  0.66574734  0.69786942    -0.84650
O325        O  0.27731312  0.67262076  0.79264112    -0.79500
O326        O  0.34172271  0.58727982  0.70045083    -0.81280
O327        O  0.16185187  0.49650296  0.78656312    -0.84020
C328        C  0.31653564  0.68416809  0.81393796     0.96750
C329        C  0.32134671  0.68918440  0.68918206     1.04180
O330        O  0.26112581  0.58305291  0.74823798    -1.13000
O331        O  0.17800744  0.50453610  0.69142094    -0.75440
O332        O  0.17310853  0.56961762  0.70215250    -0.78920
O333        O  0.34079712  0.66548596  0.80466647    -0.79610
C334        C  0.16118936  0.53028732  0.68121843     0.95650
O335        O  0.17917347  0.57342523  0.79763371    -0.77570
O336        O  0.26889078  0.50756410  0.70297619    -0.82760
C337        C  0.30081702  0.52908665  0.81063760     0.98270
C338        C  0.31376158  0.54102935  0.68742600     1.04190
O339        O  0.33505053  0.57364613  0.79531597    -0.78410
C340        C  0.15458873  0.52588687  0.80686019     1.02490
C341        C  0.31565280  0.50909454  0.84603290    -0.06590
C342        C  0.27964661  0.47963372  0.87896172    -0.17720
C343        C  0.29276095  0.46387319  0.91521059     0.10610
C344        C  0.34382200  0.47894499  0.91965572    -0.06510
C345        C  0.37918513  0.50580480  0.88573661    -0.17750
C346        C  0.36540978  0.52016930  0.84874803     0.10640
S347        S  0.24238950  0.42438074  0.95445697    -0.32710
S348        S  0.41250592  0.55112785  0.80582522    -0.32720
H349        H  0.37583033  0.52746568  0.77233132     0.28650
H350        H  0.26176773  0.39703897  0.46802385     0.28640
H351        H  0.24110869  0.46933513  0.87705573     0.19240
H352        H  0.41810808  0.51643752  0.88839332     0.19240
C353        C  0.33294640  0.52520695  0.65189273    -0.06590
C354        C  0.29767092  0.47647467  0.63290746    -0.17720
C355        C  0.31130445  0.46090120  0.59687203     0.10610
C356        C  0.36094800  0.49478620  0.57863356    -0.06510
C357        C  0.39715154  0.54233042  0.59815791    -0.17750
C358        C  0.38425213  0.55751625  0.63498327     0.10640
S359        S  0.26493566  0.39794146  0.57370759    -0.32710
S360        S  0.43564032  0.61804387  0.65864200    -0.32720
H361        H  0.42579781  0.59761275  0.70070472     0.28650
H362        H  0.22531695  0.38050845  0.10435139     0.28640
H363        H  0.25873349  0.45074028  0.64563518     0.19240
H364        H  0.43570661  0.56786776  0.58447800     0.19240
C365        C  0.33508484  0.72106466  0.85068410    -0.06590
C366        C  0.38251577  0.73868958  0.87046539    -0.17720
C367        C  0.40208882  0.77299251  0.90515777     0.10610
C368        C  0.37401955  0.79063603  0.92092496    -0.06510
C369        C  0.32777589  0.77481001  0.90071755    -0.17750
C370        C  0.30750180  0.73978403  0.86653089     0.10640
S371        S  0.46293756  0.79251360  0.92820797    -0.32710
S372        S  0.24485789  0.71884281  0.84702023    -0.32720
H373        H  0.22221443  0.66625203  0.85411978     0.28650
H374        H  0.47818531  0.84077908  0.94317921     0.28640
H375        H  0.40477896  0.72564771  0.85900745     0.19240
H376        H  0.30577141  0.78771401  0.91327754     0.19240
C377        C  0.38327937  0.79294946  0.58046808    -0.06590
C378        C  0.34682776  0.79032052  0.60759101    -0.17720
C379        C  0.32726477  0.75826878  0.64407289     0.10610
C380        C  0.34428477  0.72760835  0.65362685    -0.06510
C381        C  0.38271179  0.73223859  0.62758107    -0.17750
C382        C  0.40255931  0.76472655  0.59138598     0.10640
S383        S  0.28163301  0.75806344  0.67845477    -0.32710
S384        S  0.45230663  0.76848370  0.56050820    -0.32720
H385        H  0.47594003  0.81884780  0.04487142     0.28650
H386        H  0.27772772  0.79229627  0.65375502     0.28640
H387        H  0.33251358  0.81241726  0.59929260     0.19240
H388        H  0.39661718  0.70951369  0.63488108     0.19240
C389        C  0.12582011  0.51381055  0.64379132    -0.06590
C390        C  0.08920349  0.46085090  0.63559684    -0.17720
C391        C  0.05357989  0.44339959  0.60166290     0.10610
C392        C  0.05444995  0.47960741  0.57510320    -0.06510
C393        C  0.09080174  0.53235883  0.58325530    -0.17750
C394        C  0.12683431  0.54984594  0.61662160     0.10640
S395        S  0.00993208  0.37474972  0.59278791    -0.32710
S396        S  0.17573507  0.61856618  0.62025180    -0.32720
H397        H  0.21656716  0.61452537  0.62701642     0.28650
H398        H  0.96947728  0.37400874  0.57451445     0.28640
H399        H  0.08804020  0.43278222  0.65596184     0.19240
H400        H  0.09270048  0.56026105  0.56204279     0.19240
C401        C  0.11649462  0.50480474  0.84305577    -0.06590
C402        C  0.09573980  0.53130008  0.85452790    -0.17720
C403        C  0.06411428  0.51717605  0.89082878     0.10610
C404        C  0.05153309  0.47467140  0.91616754    -0.06510
C405        C  0.06994640  0.44657428  0.90393228    -0.17750
C406        C  0.10229172  0.46113153  0.86803788     0.10640
S407        S  0.04298409  0.55641456  0.90404207    -0.32710
S408        S  0.12713432  0.42467954  0.85853895    -0.32720
H409        H  0.17770283  0.46986656  0.85471259     0.28650
H410        H  0.04689928  0.55397043  0.94898823     0.28640
H411        H  0.10545671  0.56444222  0.83582481     0.19240
H412        H  0.06052894  0.41408229  0.92349843     0.19240
C413        C  0.46148760  0.34470654  0.57989819    -0.06590
C414        C  0.49272105  0.38210511  0.61117268    -0.17720
C415        C  0.50811120  0.36970758  0.64829542     0.10610
C416        C  0.49328180  0.31898147  0.65393747    -0.06510
C417        C  0.45867731  0.28095558  0.62422618    -0.17750
C418        C  0.44266183  0.29310214  0.58744747     0.10640
S419        S  0.54520061  0.41994589  0.68765588    -0.32710
S420        S  0.39858434  0.24111806  0.55131716    -0.32720
H421        H  0.37475334  0.26325465  0.03558628     0.28650
H422        H  0.52209640  0.38681085  0.72357693     0.28640
H423        H  0.50622044  0.42158871  0.60616084     0.19240
H424        H  0.44457872  0.24153960  0.62914219     0.19240
C425        C  0.51587109  0.33344924  0.84975818    -0.06590
C426        C  0.46795834  0.32572778  0.84917203    -0.17720
C427        C  0.45119657  0.33933122  0.88441596     0.10610
C428        C  0.48383526  0.36300245  0.92079424    -0.06510
C429        C  0.53251519  0.37228221  0.92055498    -0.17750
C430        C  0.54815831  0.35652930  0.88625467     0.10640
S431        S  0.38663026  0.32239915  0.88177685    -0.32710
S432        S  0.60744047  0.36276811  0.89312425    -0.32720
H433        H  0.59062005  0.31712947  0.87133618     0.28650
H434        H  0.37425991  0.30679460  0.92513411     0.28640
H435        H  0.44272492  0.30761345  0.82146592     0.19240
H436        H  0.55765958  0.38982225  0.94837695     0.19240
C437        C  0.50868548  0.13452734  0.85495024    -0.06590
C438        C  0.45878676  0.08764711  0.85667008    -0.17720
C439        C  0.44316006  0.05367389  0.89164062     0.10610
C440        C  0.47845468  0.06640036  0.92547247    -0.06510
C441        C  0.52844057  0.11308324  0.92343731    -0.17750
C442        C  0.54363847  0.14743903  0.88907054     0.10640
S443        S  0.37743116  0.99568355  0.89165177    -0.32710
S444        S  0.60718239  0.20820672  0.89196657    -0.32720
H445        H  0.59299459  0.23759486  0.87249430     0.28650
H446        H  0.36992266  0.99403672  0.93643428     0.28640
H447        H  0.43174615  0.07749660  0.83063047     0.19240
H448        H  0.55548658  0.12349426  0.94954633     0.19240
C449        C  0.46496659  0.05533402  0.58431589    -0.06590
C450        C  0.43965448  0.07781656  0.59283095    -0.17720
C451        C  0.45390939  0.11084316  0.62784341     0.10610
C452        C  0.49372629  0.12100813  0.65611746    -0.06510
C453        C  0.51680410  0.09579695  0.64879895    -0.17750
C454        C  0.50351376  0.06388735  0.61306722     0.10640
S455        S  0.42367284  0.14289253  0.63144473    -0.32710
S456        S  0.53951752  0.03797695  0.60464368    -0.32720
H457        H  0.54376836  0.04491684  0.55966743     0.28650
H458        H  0.47207794  0.19155097  0.63341117     0.28640
H459        H  0.41043649  0.07179219  0.57058168     0.19240
H460        H  0.54704628  0.10257663  0.67013297     0.19240
C461        C  0.72141867  0.35375009  0.84037487    -0.06590
C462        C  0.73191422  0.32155075  0.86039751    -0.17720
C463        C  0.76264821  0.33678564  0.89718852     0.10610
C464        C  0.78463705  0.38594415  0.91473263    -0.06510
C465        C  0.77758645  0.41982371  0.89365838    -0.17750
C466        C  0.74678398  0.40467051  0.85652776     0.10640
S467        S  0.77217621  0.29136442  0.92004409    -0.32710
S468        S  0.74437744  0.45333342  0.83064179    -0.32720
H469        H  0.69087207  0.42675711  0.83661471     0.28650
H470        H  0.77390425  0.30438052  0.96344894     0.28640
H471        H  0.71492477  0.28320005  0.84813004     0.19240
H472        H  0.79583022  0.45820299  0.90650316     0.19240
C473        C  0.70625532  0.33951252  0.64160189    -0.06590
C474        C  0.73556313  0.39195233  0.62969477    -0.17720
C475        C  0.77133682  0.41171457  0.59571367     0.10610
C476        C  0.77853485  0.37865054  0.57300790    -0.06510
C477        C  0.74969460  0.32652870  0.58465088    -0.17750
C478        C  0.71307426  0.30635790  0.61787648     0.10640
S479        S  0.80550970  0.47904458  0.58212491    -0.32710
S480        S  0.67392932  0.23740483  0.62566790    -0.32720
H481        H  0.62702863  0.23180672  0.62843201     0.28650
H482        H  0.84991513  0.48623117  0.56502171     0.28640
H483        H  0.73100822  0.41803088  0.64718938     0.19240
H484        H  0.75396489  0.30077719  0.56620373     0.19240
loop_ 
_geom_bond_atom_site_label_1 
_geom_bond_atom_site_label_2 
_geom_bond_distance 
_geom_bond_site_symmetry_2 
_ccdc_geom_bond_type 
C1            C2   1.394   1_554  A
C1            C6   1.404       .  A
C1          C234   1.474       .  S
C2          C245   1.393       .  A
C2            H7   1.085       .  S
C3            C4   1.399       .  A
C3          C244   1.393       .  A
C3          C222   1.473       .  S
C4            C5   1.419       .  A
C4            H8   1.076       .  S
C5          C248   1.419       .  A
C5           C52   1.515       .  S
C6          C247   1.419   1_554  A
C6            H9   1.078       .  S
C10          C15   1.399   1_545  A
C10         C253   1.394       .  A
C10         C207   1.478       .  S
C11          C12   1.396       .  A
C11         C252   1.394       .  A
C11          H16   1.085       .  S
C12          C13   1.406   1_545  A
C12         C198   1.481       .  S
C13          C14   1.419       .  A
C13          H17   1.079       .  S
C14         C257   1.417       .  A
C14          C61   1.511       .  S
C15         C256   1.417       .  A
C15          H18   1.078       .  S
C19          C24   1.399       .  A
C19         C262   1.396       .  A
C19         C171   1.479       .  S
C20          C21   1.400       .  A
C20         C261   1.396       .  A
C20          H25   1.084       .  S
C21          C22   1.406       .  A
C21         C186   1.487       .  S
C22          C23   1.417       .  A
C22          H26   1.080       .  S
C23         C266   1.413       .  A
C23          C72   1.505       .  S
C24         C265   1.413   1_554  A
C24          H27   1.080       .  S
Fe28         O44   2.050       .  S
Fe28         O34   2.059       .  S
Fe28         O41   2.060       .  S
Fe28         O33   2.058       .  S
Fe28         O39   1.973       .  S
Fe29         O32   2.066       .  S
Fe29         O36   2.074       .  S
Fe29         O40   2.071       .  S
Fe29         O45   2.068       .  S
Fe29         O39   1.979       .  S
Fe30         O48   2.072       .  S
Fe30         O35   2.065       .  S
Fe30         O42   2.068       .  S
Fe30         O31   2.074       .  S
Fe30         O39   1.983       .  S
O31          C38   1.271       .  A
O32          C46   1.270       .  A
O33          C38   1.269       .  A
O34          C37   1.266       .  A
O35          C47   1.269       .  A
O36          C49   1.267       .  A
C37         C195   1.475       .  S
C37          O42   1.268       .  A
C38         C210   1.489       .  S
O40          C43   1.271       .  A
O41          C43   1.267       .  A
C43         C231   1.489       .  S
O44          C49   1.268       .  A
O45          C47   1.269       .  A
C46         C183   1.478       .  S
C46          O48   1.271       .  A
C47         C174   1.486       .  S
C49         C219   1.495       .  S
C50          C51   1.399   1_455  A
C50          C55   1.394       .  A
C50         C162   1.476       .  S
C51          C52   1.418       .  A
C51          H56   1.076       .  S
C52         C295   1.420       .  A
C53          C54   1.405   1_655  A
C53         C294   1.420   1_554  A
C53          H57   1.078       .  S
C54         C297   1.395   1_554  A
C54         C150   1.477       .  S
C55         C296   1.395       .  A
C55          H58   1.085       .  S
C59          C60   1.404       .  A
C59          C64   1.397       .  A
C59         C126   1.477       .  S
C60          C61   1.417       .  A
C60          H65   1.079       .  S
C61         C304   1.416       .  A
C62          C63   1.401       .  A
C62         C303   1.416       .  A
C62          H66   1.078       .  S
C63         C306   1.395       .  A
C63         C135   1.481       .  S
C64         C305   1.395       .  A
C64          H67   1.084       .  S
C68          C69   1.399       .  A
C68          C73   1.403       .  A
C68         C102   1.480       .  S
C69         C312   1.394       .  A
C69          H74   1.084       .  S
C70          C71   1.399       .  A
C70         C311   1.394   1_554  A
C70         C114   1.475       .  S
C71         C314   1.416   1_554  A
C71          H75   1.080       .  S
C72          C73   1.414       .  A
C72         C313   1.416       .  A
C73          H76   1.080       .  S
Fe77         O93   2.056       .  S
Fe77         O83   2.063       .  S
Fe77         O90   2.064       .  S
Fe77         O82   2.051       .  S
Fe77         O88   1.966       .  S
Fe78         O81   2.067       .  S
Fe78         O85   2.083       .  S
Fe78         O89   2.070       .  S
Fe78         O94   2.074       .  S
Fe78         O88   1.972       .  S
Fe79         O97   2.072       .  S
Fe79         O84   2.058       .  S
Fe79         O91   2.068       .  S
Fe79         O80   2.078       .  S
Fe79         O88   1.970       .  S
O80          C87   1.271       .  A
O81          C95   1.270       .  A
O82          C87   1.267       .  A
O83          C86   1.265       .  A
O84          C96   1.267       .  A
O85          C98   1.272       .  A
C86         C123   1.496       .  S
C86          O91   1.270       .  A
C87         C138   1.483       .  S
O89          C92   1.269       .  A
O90          C92   1.267       .  A
C92         C147   1.484       .  S
O93          C98   1.269       .  A
O94          C96   1.272       .  A
C95          C99   1.485       .  S
C95          O97   1.270       .  A
C96         C111   1.495       .  S
C98         C159   1.492       .  S
C99         C100   1.403       .  A
C99         C104   1.416       .  A
C100        C101   1.396       .  A
C100        H109   1.074       .  S
C101        C102   1.411       .  A
C101        S105   1.805       .  S
C102        C103   1.404       .  A
C103        C104   1.401       .  A
C103        H110   1.084       .  S
C104        S106   1.803       .  S
S105        H350   1.407       .  S
S106        H107   1.408       .  S
H108        S347   1.407       .  S
C111        C112   1.410       .  A
C111        C116   1.424       .  A
C112        C113   1.401       .  A
C112        H121   1.082       .  S
C113        C114   1.406       .  A
C113        S117   1.808       .  S
C114        C115   1.398       .  A
C115        C116   1.402       .  A
C115        H122   1.084       .  S
C116        S118   1.802       .  S
S117        H362   1.407       .  S
S118        H119   1.408       .  S
H120        S359   1.407       .  S
C123        C124   1.410       .  A
C123        C128   1.425       .  A
C124        C125   1.399       .  A
C124        H133   1.083       .  S
C125        C126   1.410       .  A
C125        S129   1.805       .  S
C126        C127   1.398       .  A
C127        C128   1.399       .  A
C127        H134   1.084       .  S
C128        S130   1.802       .  S
S129        H132   1.406       .  S
S130        H131   1.408       .  S
C135        C136   1.403       .  A
C135        C140   1.411       .  A
C136        C137   1.401       .  A
C136        H145   1.083       .  S
C137        C138   1.415       .  A
C137        S141   1.810       .  S
C138        C139   1.407       .  A
C139        C140   1.401       .  A
C139        H146   1.084       .  S
C140        S142   1.804       .  S
S141        H144   1.406       .  S
S142        H385   1.406       .  S
H143        S384   1.406       .  S
C147        C148   1.406       .  A
C147        C152   1.417       .  A
C148        C149   1.403       .  A
C148        H157   1.084       .  S
C149        C150   1.413       .  A
C149        S153   1.803       .  S
C150        C151   1.400       .  A
C151        C152   1.397       .  A
C151        H158   1.084       .  S
C152        S154   1.802       .  S
S153        H156   1.403   1_455  S
S154        H155   1.407       .  S
C159        C160   1.407       .  A
C159        C164   1.421       .  A
C160        C161   1.398       .  A
C160        H169   1.084       .  S
C161        C162   1.411       .  A
C161        S165   1.804       .  S
C162        C163   1.398       .  A
C163        C164   1.399       .  A
C163        H170   1.084       .  S
C164        S166   1.795       .  S
S165        H168   1.406       .  S
S166        H167   1.398       .  S
C171        C172   1.403       .  A
C171        C176   1.410       .  A
C172        C173   1.400       .  A
C172        H181   1.084       .  S
C173        C174   1.416       .  A
C173        S177   1.803       .  S
C174        C175   1.405       .  A
C175        C176   1.398       .  A
C175        H182   1.076       .  S
C176        S178   1.805       .  S
S177        H180   1.408       .  S
S178        H421   1.406       .  S
H179        S420   1.406       .  S
C183        C184   1.404       .  A
C183        C188   1.413       .  A
C184        C185   1.402       .  A
C184        H193   1.084       .  S
C185        C186   1.416       .  A
C185        S189   1.803       .  S
C186        C187   1.405       .  A
C187        C188   1.397       .  A
C187        H194   1.084       .  S
C188        S190   1.802       .  S
S189        H192   1.406       .  S
S190        H191   1.406       .  S
C195        C196   1.404       .  A
C195        C200   1.413       .  A
C196        C197   1.402       .  A
C196        H205   1.084       .  S
C197        C198   1.414       .  A
C197        S201   1.803   1_545  S
C198        C199   1.403       .  A
C199        C200   1.396       .  A
C199        H206   1.084       .  S
C200        S202   1.803       .  S
S201        H204   1.406       .  S
S202        H203   1.406       .  S
C207        C208   1.399       .  A
C207        C212   1.412       .  A
C208        C209   1.397       .  A
C208        H217   1.084       .  S
C209        C210   1.418       .  A
C209        S213   1.793       .  S
C210        C211   1.407       .  A
C211        C212   1.399       .  A
C211        H218   1.084       .  S
C212        S214   1.804       .  S
S213        H216   1.407       .  S
S214        H215   1.406       .  S
C219        C220   1.410       .  A
C219        C224   1.423       .  A
C220        C221   1.393       .  A
C220        H229   1.083       .  S
C221        C222   1.408       .  A
C221        S225   1.807       .  S
C222        C223   1.400       .  A
C223        C224   1.403       .  A
C223        H230   1.084       .  S
C224        S226   1.802       .  S
S225        H228   1.404       .  S
S226        H227   1.402       .  S
C231        C232   1.408       .  A
C231        C236   1.421       .  A
C232        C233   1.401       .  A
C232        H241   1.083       .  S
C233        C234   1.410       .  A
C233        S237   1.804       .  S
C234        C235   1.399       .  A
C235        C236   1.398       .  A
C235        H242   1.084       .  S
C236        S238   1.803       .  S
S237        H240   1.405       .  S
S238        H239   1.408       .  S
C243        C244   1.394       .  A
C243        C248   1.404       .  A
C243        C476   1.474       .  S
C244        H249   1.085       .  S
C245        C246   1.399       .  A
C245        C464   1.473       .  S
C246        C247   1.419       .  A
C246        H250   1.076       .  S
C247        C294   1.515       .  S
C248        H251   1.078       .  S
C252        C257   1.399   1_545  A
C252        C449   1.478       .  S
C253        C254   1.396   1_554  A
C253        H258   1.085       .  S
C254        C255   1.406   1_545  A
C254        C440   1.481       .  S
C255        C256   1.419   1_556  A
C255        H259   1.079       .  S
C256        C303   1.511       .  S
C257        H260   1.078       .  S
C261        C266   1.399       .  A
C261        C413   1.479       .  S
C262        C263   1.400   1_554  A
C262        H267   1.084       .  S
C263        C264   1.406       .  A
C263        C428   1.487       .  S
C264        C265   1.417       .  A
C264        H268   1.080       .  S
C265        C314   1.505       .  S
C266        H269   1.080       .  S
Fe270       O286   2.050       .  S
Fe270       O276   2.059       .  S
Fe270       O283   2.060       .  S
Fe270       O275   2.058       .  S
Fe270       O281   1.973       .  S
Fe271       O274   2.066       .  S
Fe271       O278   2.074       .  S
Fe271       O282   2.071       .  S
Fe271       O287   2.067       .  S
Fe271       O281   1.979       .  S
Fe272       O290   2.072       .  S
Fe272       O277   2.065       .  S
Fe272       O284   2.068       .  S
Fe272       O273   2.074       .  S
Fe272       O281   1.983       .  S
O273        C280   1.271       .  A
O274        C288   1.270       .  A
O275        C280   1.269       .  A
O276        C279   1.266       .  A
O277        C289   1.269       .  A
O278        C291   1.267       .  A
C279        C437   1.475       .  S
C279        O284   1.268       .  A
C280        C452   1.489       .  S
O282        C285   1.271       .  A
O283        C285   1.267       .  A
C285        C473   1.489       .  S
O286        C291   1.268       .  A
O287        C289   1.269       .  A
C288        C425   1.478       .  S
C288        O290   1.271       .  A
C289        C416   1.486       .  S
C291        C461   1.495       .  S
C292        C293   1.399   1_455  A
C292        C297   1.394       .  A
C292        C404   1.476       .  S
C293        C294   1.418       .  A
C293        H298   1.076       .  S
C295        C296   1.405   1_655  A
C295        H299   1.078       .  S
C296        C392   1.477       .  S
C297        H300   1.085       .  S
C301        C302   1.404       .  A
C301        C306   1.397   1_556  A
C301        C368   1.477       .  S
C302        C303   1.417   1_556  A
C302        H307   1.079       .  S
C304        C305   1.401       .  A
C304        H308   1.078       .  S
C305        C377   1.481       .  S
C306        H309   1.084       .  S
C310        C311   1.399       .  A
C310        C315   1.403       .  A
C310        C344   1.480       .  S
C311        H316   1.084       .  S
C312        C313   1.399       .  A
C312        C356   1.475       .  S
C313        H317   1.080       .  S
C314        C315   1.414       .  A
C315        H318   1.080       .  S
Fe319       O335   2.056       .  S
Fe319       O325   2.063       .  S
Fe319       O332   2.064       .  S
Fe319       O324   2.051       .  S
Fe319       O330   1.966       .  S
Fe320       O323   2.067       .  S
Fe320       O327   2.083       .  S
Fe320       O331   2.070       .  S
Fe320       O336   2.074       .  S
Fe320       O330   1.972       .  S
Fe321       O339   2.072       .  S
Fe321       O326   2.058       .  S
Fe321       O333   2.067       .  S
Fe321       O322   2.078       .  S
Fe321       O330   1.970       .  S
O322        C329   1.271       .  A
O323        C337   1.270       .  A
O324        C329   1.267       .  A
O325        C328   1.265       .  A
O326        C338   1.267       .  A
O327        C340   1.272       .  A
C328        C365   1.496       .  S
C328        O333   1.270       .  A
C329        C380   1.483       .  S
O331        C334   1.269       .  A
O332        C334   1.267       .  A
C334        C389   1.484       .  S
O335        C340   1.270       .  A
O336        C338   1.272       .  A
C337        C341   1.485       .  S
C337        O339   1.270       .  A
C338        C353   1.495       .  S
C340        C401   1.492       .  S
C341        C342   1.403       .  A
C341        C346   1.416       .  A
C342        C343   1.396       .  A
C342        H351   1.074       .  S
C343        C344   1.411       .  A
C343        S347   1.805       .  S
C344        C345   1.404       .  A
C345        C346   1.401       .  A
C345        H352   1.084       .  S
C346        S348   1.803       .  S
S348        H349   1.408       .  S
C353        C354   1.410       .  A
C353        C358   1.424       .  A
C354        C355   1.401       .  A
C354        H363   1.082       .  S
C355        C356   1.406       .  A
C355        S359   1.808       .  S
C356        C357   1.398       .  A
C357        C358   1.402       .  A
C357        H364   1.084       .  S
C358        S360   1.802       .  S
S360        H361   1.408       .  S
C365        C366   1.410       .  A
C365        C370   1.425       .  A
C366        C367   1.399       .  A
C366        H375   1.083       .  S
C367        C368   1.410       .  A
C367        S371   1.805       .  S
C368        C369   1.398       .  A
C369        C370   1.399       .  A
C369        H376   1.084       .  S
C370        S372   1.802       .  S
S371        H374   1.406       .  S
S372        H373   1.408       .  S
C377        C378   1.403       .  A
C377        C382   1.411       .  A
C378        C379   1.401       .  A
C378        H387   1.083       .  S
C379        C380   1.415       .  A
C379        S383   1.810       .  S
C380        C381   1.407       .  A
C381        C382   1.401       .  A
C381        H388   1.084       .  S
C382        S384   1.804       .  S
S383        H386   1.406       .  S
C389        C390   1.406       .  A
C389        C394   1.417       .  A
C390        C391   1.403       .  A
C390        H399   1.084       .  S
C391        C392   1.413       .  A
C391        S395   1.803       .  S
C392        C393   1.400       .  A
C393        C394   1.397       .  A
C393        H400   1.084       .  S
C394        S396   1.802       .  S
S395        H398   1.403   1_455  S
S396        H397   1.407       .  S
C401        C402   1.407       .  A
C401        C406   1.421       .  A
C402        C403   1.398       .  A
C402        H411   1.084       .  S
C403        C404   1.411       .  A
C403        S407   1.804       .  S
C404        C405   1.398       .  A
C405        C406   1.399       .  A
C405        H412   1.084       .  S
C406        S408   1.795       .  S
S407        H410   1.406       .  S
S408        H409   1.398       .  S
C413        C414   1.403       .  A
C413        C418   1.410       .  A
C414        C415   1.400       .  A
C414        H423   1.084       .  S
C415        C416   1.416       .  A
C415        S419   1.803       .  S
C416        C417   1.405       .  A
C417        C418   1.398       .  A
C417        H424   1.076       .  S
C418        S420   1.805       .  S
S419        H422   1.408       .  S
C425        C426   1.404       .  A
C425        C430   1.413       .  A
C426        C427   1.402       .  A
C426        H435   1.084       .  S
C427        C428   1.416       .  A
C427        S431   1.803       .  S
C428        C429   1.405       .  A
C429        C430   1.397       .  A
C429        H436   1.084       .  S
C430        S432   1.802       .  S
S431        H434   1.406       .  S
S432        H433   1.406       .  S
C437        C438   1.404       .  A
C437        C442   1.413       .  A
C438        C439   1.402       .  A
C438        H447   1.084       .  S
C439        C440   1.414       .  A
C439        S443   1.803   1_545  S
C440        C441   1.403       .  A
C441        C442   1.396       .  A
C441        H448   1.084       .  S
C442        S444   1.803       .  S
S443        H446   1.406       .  S
S444        H445   1.406       .  S
C449        C450   1.399       .  A
C449        C454   1.412       .  A
C450        C451   1.397       .  A
C450        H459   1.084       .  S
C451        C452   1.418       .  A
C451        S455   1.793       .  S
C452        C453   1.407       .  A
C453        C454   1.399       .  A
C453        H460   1.084       .  S
C454        S456   1.804       .  S
S455        H458   1.407       .  S
S456        H457   1.406       .  S
C461        C462   1.410       .  A
C461        C466   1.423       .  A
C462        C463   1.393       .  A
C462        H471   1.083       .  S
C463        C464   1.408       .  A
C463        S467   1.807       .  S
C464        C465   1.400       .  A
C465        C466   1.403       .  A
C465        H472   1.084       .  S
C466        S468   1.802       .  S
S467        H470   1.404       .  S
S468        H469   1.402       .  S
C473        C474   1.408       .  A
C473        C478   1.421       .  A
C474        C475   1.401       .  A
C474        H483   1.083       .  S
C475        C476   1.410       .  A
C475        S479   1.804       .  S
C476        C477   1.399       .  A
C477        C478   1.398       .  A
C477        H484   1.084       .  S
C478        S480   1.803       .  S
S479        H482   1.405       .  S
S480        H481   1.408       .  S
