geometry optimzed in LAMMPS
_audit_creation_date              2020-12-01 
_audit_creation_method            'lammps2cif' 
_symmetry_space_group_name_H-M    'P1' 
_symmetry_Int_Tables_number       1 
_symmetry_cell_setting            triclinic 
loop_ 
_symmetry_equiv_pos_as_xyz 
  x,y,z 
_cell_length_a                    32.83014254 
_cell_length_b                    32.568401779634065 
_cell_length_c                    46.643314155304196 
_cell_angle_alpha                 90.14161281815498 
_cell_angle_beta                  90.22319073319244 
_cell_angle_gamma                 120.0633563794727 
loop_ 
_atom_site_label 
_atom_site_type_symbol 
_atom_site_fract_x 
_atom_site_fract_y 
_atom_site_fract_z 
_atom_site_charge 
Fe1        Fe  0.36314612  0.17923851  0.50101514     1.65800
Fe2        Fe  0.46197410  0.25578387  0.03701090     1.73200
Fe3        Fe  0.46783436  0.20118959  0.47753851     1.54400
O4          O  0.41596334  0.12814638  0.47255866    -0.81800
O5          O  0.49635520  0.30877796  0.50830725    -0.80100
O6          O  0.36083085  0.11997385  0.00390843    -0.84300
O7          O  0.36486259  0.17673855  0.45547706    -0.79200
O8          O  0.49391104  0.18105511  0.00675373    -0.81000
O9          O  0.41113148  0.27825055  0.03936048    -0.83700
C10         C  0.39778507  0.20069692  0.43756274     0.97100
C11         C  0.38275266  0.10135184  0.48973385     1.04500
O12         O  0.43105080  0.21502893  0.00482911    -1.12700
O13         O  0.42536211  0.20046298  0.06416428    -0.75100
O14         O  0.35427062  0.17980382  0.04692135    -0.78600
O15         O  0.44087845  0.22159304  0.44477830    -0.79300
C16         C  0.38121492  0.18122616  0.06728868     0.96000
O17         O  0.36776780  0.24750567  0.99979146    -0.77300
O18         O  0.51989720  0.24201983  0.03593622    -0.82400
C19         C  0.53079608  0.31013957  0.49583535     0.98600
C20         C  0.52645283  0.21196908  0.02192619     1.04500
O21         O  0.52629743  0.27346416  0.48228081    -0.78100
C22         C  0.38423141  0.27863760  0.01941650     1.02800
Fe23       Fe  0.36091979  0.17859986  0.25195024     1.65800
Fe24       Fe  0.46018226  0.19256391  0.22331565     1.73200
Fe25       Fe  0.46489400  0.26990397  0.27096019     1.54400
O26         O  0.41225890  0.28861634  0.27119073    -0.81800
O27         O  0.49422856  0.18726593  0.25797189    -0.80100
O28         O  0.35847677  0.23808699  0.24059282    -0.84300
O29         O  0.36405299  0.19336760  0.29674446    -0.79200
O30         O  0.48448957  0.30374254  0.23306751    -0.81000
O31         O  0.41009284  0.11964504  0.22905951    -0.83700
C32         C  0.39764204  0.21087206  0.31534257     0.97100
C33         C  0.37912054  0.27798827  0.25313770     1.04500
O34         O  0.42803923  0.21286374  0.24899412    -1.12700
O35         O  0.42382379  0.19612884  0.18903565    -0.75100
O36         O  0.35135724  0.15979647  0.20768978    -0.78600
O37         O  0.44078119  0.23400711  0.30829190    -0.79300
C38         C  0.37937196  0.17310252  0.18622455     0.96000
O39         O  0.36155240  0.11823686  0.26281644    -0.77300
O40         O  0.51707569  0.26472785  0.21576419    -0.82400
C41         C  0.53036042  0.22558309  0.26468377     0.98600
C42         C  0.51956978  0.30434685  0.22221585     1.04500
O43         O  0.52607900  0.26120277  0.27207943    -0.78100
C44         C  0.37874952  0.09775920  0.24825552     1.02800
Fe45       Fe  0.17500381  0.82024185  0.00059231     1.65800
Fe46       Fe  0.26552317  0.80956577  0.02319335     1.73200
Fe47       Fe  0.19841272  0.74003324  0.47135354     1.54400
O48         O  0.12481576  0.71625185  0.47331464    -0.81800
O49         O  0.30594114  0.82548944  0.48956367    -0.80100
O50         O  0.11646867  0.75597763  0.00741976    -0.84300
O51         O  0.16508972  0.81531519  0.45693225    -0.79200
O52         O  0.18811611  0.69520109  0.00031565    -0.81000
O53         O  0.28305559  0.88157457  0.02404320    -0.83700
C54         C  0.18368737  0.80549189  0.43588650     0.97100
C55         C  0.10061686  0.72220938  0.49279162     1.04500
O56         O  0.21203319  0.78987099  0.99854971    -1.12700
O57         O  0.22540252  0.79506175  0.05908581    -0.75100
O58         O  0.18331939  0.82873924  0.04564172    -0.78600
O59         O  0.20858163  0.78615231  0.43921505    -0.79300
C60         C  0.20017494  0.81343970  0.06496887     0.96000
O61         O  0.23315979  0.88484453  0.99308981    -0.77300
O62         O  0.25610810  0.73816640  0.02297616    -0.82400
C63         C  0.30861697  0.79200118  0.47860260     0.98600
C64         C  0.22343283  0.69806739  0.01299138     1.04500
O65         O  0.27120917  0.75620395  0.46832574    -0.78100
C66         C  0.27246536  0.90440970  0.00603814     1.02800
Fe67       Fe  0.17218804  0.81808402  0.25079783     1.65800
Fe68       Fe  0.25229500  0.79610114  0.27885979     1.73200
Fe69       Fe  0.18763761  0.73171296  0.22423027     1.54400
O70         O  0.11513259  0.71098749  0.22393073    -0.81800
O71         O  0.29609256  0.81363917  0.24527216    -0.80100
O72         O  0.10950723  0.75753075  0.25687014    -0.84300
O73         O  0.16457413  0.81398032  0.20539973    -0.79200
O74         O  0.17136589  0.68821480  0.25810669    -0.81000
O75         O  0.27367539  0.86935156  0.28131004    -0.83700
C76         C  0.18401507  0.80213775  0.18576192     0.97100
C77         C  0.09148722  0.71936873  0.24249427     1.04500
O78         O  0.20372506  0.78226540  0.25115013    -1.12700
O79         O  0.20599316  0.78086521  0.31170511    -0.75100
O80         O  0.17682859  0.82601764  0.29599324    -0.78600
O81         O  0.20205552  0.77631203  0.19058168    -0.79300
C82         C  0.18525336  0.80444114  0.31606992     0.96000
O83         O  0.23480943  0.87932126  0.24535031    -0.77300
O84         O  0.24066577  0.72403882  0.27821870    -0.82400
C85         C  0.29776390  0.77998550  0.23331558     0.98600
C86         C  0.20593215  0.68615607  0.26759128     1.04500
O87         O  0.25961833  0.74469051  0.22327001    -0.78100
C88         C  0.26950548  0.89559024  0.26249588     1.02800
Fe89       Fe  0.82182328  0.64655867  0.00256359     1.65800
Fe90       Fe  0.80498060  0.54659545  0.03399502     1.73200
Fe91       Fe  0.73168065  0.54037097  0.48454098     1.54400
O92         O  0.71189964  0.59266710  0.48287702    -0.81800
O93         O  0.81419020  0.51006235  0.50339309    -0.80100
O94         O  0.76456969  0.65297821  0.01306835    -0.84300
O95         O  0.80781801  0.64115438  0.45816414    -0.79200
O96         O  0.69665143  0.52429994  0.02445326    -0.81000
O97         O  0.87776978  0.59551985  0.02802103    -0.83700
C98         C  0.78982242  0.60677654  0.43993266     0.97100
C99         C  0.72235287  0.62721186  0.50001973     1.04500
O100        O  0.78613333  0.57890823  0.00680768    -1.12700
O101        O  0.80126814  0.58581041  0.06684232    -0.75100
O102        O  0.84005028  0.65774120  0.04677525    -0.78600
O103        O  0.76816164  0.56364462  0.44759163    -0.79300
C104        C  0.82447485  0.63071725  0.06874583     0.96000
O105        O  0.88050171  0.64258096  0.99258320    -0.77300
O106        O  0.73363007  0.48997602  0.04151739    -0.82400
C107        C  0.77771963  0.47550605  0.49286897     0.98600
C108        C  0.69519251  0.48762965  0.03338547     1.04500
O109        O  0.74290265  0.48024884  0.48471898    -0.78100
C110        C  0.89986253  0.62475704  0.00773979     1.02800
Fe111      Fe  0.81708020  0.64726332  0.25374078     1.65800
Fe112      Fe  0.74233572  0.54970639  0.21756461     1.73200
Fe113      Fe  0.79592206  0.54146492  0.27530470     1.54400
O114        O  0.86754981  0.59346287  0.28187017    -0.81800
O115        O  0.68939614  0.51319263  0.24531223    -0.80100
O116        O  0.87934818  0.64850850  0.24973808    -0.84300
O117        O  0.81783981  0.64277537  0.29942998    -0.79200
O118        O  0.82061207  0.52260962  0.24147852    -0.81000
O119        O  0.72101851  0.60196426  0.21738218    -0.83700
C120        C  0.79482301  0.60854615  0.31701552     0.97100
C121        C  0.89417362  0.62593714  0.26430363     1.04500
O122        O  0.78399062  0.57977874  0.24951757    -1.12700
O123        O  0.79564083  0.58749240  0.18960670    -0.75100
O124        O  0.81999930  0.65902785  0.20871995    -0.78600
O125        O  0.77460513  0.56534069  0.30914235    -0.79300
C126        C  0.81586441  0.63222262  0.18742640     0.96000
O127        O  0.75467036  0.64618895  0.25651623    -0.77300
O128        O  0.75605317  0.49080081  0.21604879    -0.82400
C129        C  0.68780774  0.47764308  0.25698839     0.98600
C130        C  0.78931740  0.48751918  0.22844061     1.04500
O131        O  0.72467305  0.48156551  0.26947771    -0.78100
C132        C  0.72364849  0.63120217  0.23688827     1.02800
Fe133      Fe  0.63913765  0.82007565  0.99807824     1.65800
Fe134      Fe  0.53877732  0.75045942  0.03212769     1.73200
Fe135      Fe  0.54168533  0.80118904  0.46885280     1.54400
O136        O  0.59447288  0.87378233  0.46454019    -0.81800
O137        O  0.50934903  0.69452111  0.50058732    -0.80100
O138        O  0.64285625  0.88417418  0.99831899    -0.84300
O139        O  0.64601035  0.82780554  0.45263221    -0.79200
O140        O  0.51331929  0.82672971  0.99930439    -0.81000
O141        O  0.58834812  0.72640308  0.03669020    -0.83700
C142        C  0.61528673  0.80330178  0.43340477     0.97100
C143        C  0.62417288  0.90098730  0.48356781     1.04500
O144        O  0.57178570  0.78901460  0.99981958    -1.12700
O145        O  0.57581313  0.80704816  0.05880222    -0.75100
O146        O  0.64715835  0.82580490  0.04341743    -0.78600
O147        O  0.57177872  0.77929875  0.43904534    -0.79300
C148        C  0.61959657  0.82493238  0.06305373     0.96000
O149        O  0.63498893  0.75575700  0.99843778    -0.77300
O150        O  0.48236125  0.76648527  0.02883489    -0.82400
C151        C  0.47630743  0.69276430  0.48602683     0.98600
C152        C  0.47877855  0.79707221  0.01330340     1.04500
O153        O  0.48196871  0.72954997  0.47244902    -0.78100
C154        C  0.61742868  0.72583030  0.01850567     1.02800
Fe155      Fe  0.63856212  0.83434487  0.24835009     1.65800
Fe156      Fe  0.53857216  0.74051690  0.26963726     1.73200
Fe157      Fe  0.53577294  0.81167475  0.21996211     1.54400
O158        O  0.58311527  0.88583328  0.22348465    -0.81800
O159        O  0.51676990  0.70357740  0.23271395    -0.80100
O160        O  0.63266868  0.89241791  0.25829434    -0.84300
O161        O  0.64434834  0.84972833  0.20386654    -0.79200
O162        O  0.50292895  0.81903169  0.25427311    -0.81000
O163        O  0.59342569  0.72471703  0.26867763    -0.83700
C164        C  0.61580284  0.83223317  0.18258344     0.97100
C165        C  0.61316362  0.91001352  0.24310715     1.04500
O166        O  0.57151237  0.79611339  0.24626473    -1.12700
O167        O  0.56479012  0.77877645  0.30649184    -0.75100
O168        O  0.63999368  0.82274802  0.29294939    -0.78600
O169        O  0.57151375  0.80697900  0.18564640    -0.79300
C170        C  0.60845983  0.80351642  0.31234192     0.96000
O171        O  0.64587688  0.77690308  0.23845979    -0.77300
O172        O  0.47605878  0.74736345  0.27177057    -0.82400
C173        C  0.47948002  0.70034214  0.22359516     0.98600
C174        C  0.46951547  0.78163979  0.26434387     1.04500
O175        O  0.48008217  0.73810790  0.21504727    -0.78100
C176        C  0.62763753  0.73733674  0.25129640     1.02800
Fe177      Fe  0.82284882  0.18294375  0.49958794     1.65800
Fe178      Fe  0.73107591  0.19189236  0.02250023     1.73200
Fe179      Fe  0.80592923  0.27020981  0.47688722     1.54400
O180        O  0.87859463  0.29230604  0.47749787    -0.81800
O181        O  0.69845185  0.18377056  0.48822537    -0.80100
O182        O  0.88433636  0.24426778  0.50900105    -0.84300
O183        O  0.83381268  0.19334306  0.45476569    -0.79200
O184        O  0.81409789  0.30490985  0.01102981    -0.81000
O185        O  0.71137802  0.11958669  0.01893026    -0.83700
C186        C  0.81791559  0.20904024  0.43501818     0.97100
C187        C  0.90277712  0.28245726  0.49479386     1.04500
O188        O  0.78634412  0.21368017  0.99934857    -1.12700
O189        O  0.76785891  0.19949840  0.05927834    -0.75100
O190        O  0.81149125  0.16827826  0.04416290    -0.78600
O191        O  0.79713663  0.23235285  0.44025786    -0.79300
C192        C  0.79466508  0.18252877  0.06406580     0.96000
O193        O  0.76275639  0.12067394  0.48960231    -0.77300
O194        O  0.74210168  0.26369907  0.02719850    -0.82400
C195        C  0.69574270  0.21940478  0.48171379     0.98600
C196        C  0.77753974  0.30383442  0.01984588     1.04500
O197        O  0.73380797  0.25721218  0.47457183    -0.78100
C198        C  0.72352658  0.09846487  0.00062317     1.02800
Fe199      Fe  0.81864576  0.18210387  0.24947644     1.65800
Fe200      Fe  0.74449773  0.21258922  0.27746020     1.73200
Fe201      Fe  0.81203061  0.27383543  0.22270180     1.54400
O202        O  0.88295281  0.28920108  0.22334902    -0.81800
O203        O  0.69877589  0.19966171  0.24505947    -0.80100
O204        O  0.88431852  0.23946329  0.25559192    -0.84300
O205        O  0.82629181  0.18521178  0.20439166    -0.79200
O206        O  0.83043463  0.31923668  0.25599887    -0.81000
O207        O  0.71690290  0.13800732  0.27897250    -0.83700
C208        C  0.81165298  0.20122342  0.18422817     0.97100
C209        C  0.90492840  0.27774513  0.24150177     1.04500
O210        O  0.79167612  0.22249064  0.24953201    -1.12700
O211        O  0.79102798  0.22468843  0.30971998    -0.75100
O212        O  0.81429263  0.17447537  0.29477385    -0.78600
O213        O  0.79577711  0.22901129  0.18870357    -0.79300
C214        C  0.80948601  0.19921745  0.31445760     0.96000
O215        O  0.75341467  0.12427659  0.24337346    -0.77300
O216        O  0.76239974  0.28588290  0.27778146    -0.82400
C217        C  0.70276189  0.23462579  0.23126956     0.98600
C218        C  0.79698603  0.32236183  0.26636713     1.04500
O219        O  0.74262706  0.26612829  0.22107560    -0.78100
C220        C  0.71860587  0.11045943  0.25997474     1.02800
Fe221      Fe  0.18218224  0.35593169  0.49932645     1.65800
Fe222      Fe  0.19742770  0.45602384  0.02971663     1.73200
Fe223      Fe  0.27102999  0.45913897  0.47714808     1.54400
O224        O  0.29073418  0.40662835  0.47765436    -0.81800
O225        O  0.18860226  0.48736840  0.49417774    -0.80100
O226        O  0.24011703  0.35179564  0.00891203    -0.84300
O227        O  0.19196894  0.35503494  0.45427451    -0.79200
O228        O  0.30463098  0.48231824  0.02002084    -0.81000
O229        O  0.12552494  0.40413468  0.02667326    -0.83700
C230        C  0.20657007  0.38747720  0.43510197     0.97100
C231        C  0.28079738  0.37347758  0.49571979     1.04500
O232        O  0.21647421  0.42397549  0.00259660    -1.12700
O233        O  0.20603537  0.42058773  0.06283861    -0.75100
O234        O  0.16611622  0.34770702  0.04328766    -0.78600
O235        O  0.23156771  0.43134739  0.44106183    -0.79300
C236        C  0.18293233  0.37563175  0.06499147     0.96000
O237        O  0.12143458  0.35886855  0.98977918    -0.77300
O238        O  0.26750892  0.51683734  0.03534338    -0.82400
C239        C  0.22339045  0.52265162  0.48336435     0.98600
C240        C  0.30613225  0.51964535  0.02763278     1.04500
O241        O  0.25917651  0.51932114  0.47540392    -0.78100
C242        C  0.10219439  0.37470888  0.00665295     1.02800
Fe243      Fe  0.18542359  0.35713173  0.24895291     1.65800
Fe244      Fe  0.20340125  0.46061336  0.27407528     1.73200
Fe245      Fe  0.25965501  0.45767537  0.21591098     1.54400
O246        O  0.28303829  0.40734953  0.21487627    -0.81800
O247        O  0.18136725  0.48678207  0.24224297    -0.80100
O248        O  0.24918841  0.36193050  0.25313974    -0.84300
O249        O  0.18583569  0.34829091  0.20411392    -0.79200
O250        O  0.31198983  0.49415471  0.24451185    -0.81000
O251        O  0.13135658  0.40699751  0.27735177    -0.83700
C252        C  0.18921185  0.37549925  0.18347919     0.97100
C253        C  0.28172682  0.37944971  0.23469763     1.04500
O254        O  0.21650099  0.42507397  0.24658561    -1.12700
O255        O  0.22290433  0.43279739  0.30694354    -0.75100
O256        O  0.18052759  0.35667446  0.29424510    -0.78600
O257        O  0.20744472  0.41998955  0.18667340    -0.79300
C258        C  0.20038427  0.38912695  0.31332732     0.96000
O259        O  0.12184008  0.35325333  0.24423291    -0.77300
O260        O  0.27427514  0.52076383  0.27112997    -0.82400
C261        C  0.21291922  0.52047030  0.22833405     0.98600
C262        C  0.31160306  0.52738065  0.25803641     1.04500
O263        O  0.24479462  0.51535017  0.21574713    -0.78100
C264        C  0.10554680  0.37382181  0.25955358     1.02800
C265        C  0.17342018  0.39785388  0.39023880    -0.21500
C266        C  0.19449159  0.37549414  0.40456346    -0.09500
C267        C  0.21186371  0.35092573  0.38844503     0.29400
C268        C  0.21101753  0.35199716  0.35822263    -0.21500
C269        C  0.19296956  0.37766904  0.34414314    -0.09500
C270        C  0.17245064  0.39881044  0.36042635     0.29400
F271        F  0.15376867  0.42290048  0.34737206    -0.20000
H272        H  0.16008606  0.41711846  0.40225532     0.17700
H273        H  0.22716436  0.33566373  0.34598688     0.17700
F274        F  0.23322722  0.32967960  0.40177961    -0.20000
C275        C  0.13951519  0.36176726  0.10995831    -0.21500
C276        C  0.17296818  0.35667758  0.09415553    -0.09500
C277        C  0.20451059  0.34646514  0.10845010     0.29400
C278        C  0.20551380  0.34617203  0.13848034    -0.21500
C279        C  0.17549768  0.35669810  0.15425287    -0.09500
C280        C  0.14083464  0.36197740  0.13986694     0.29400
F281        F  0.11153341  0.37223035  0.15468560    -0.20000
H282        H  0.11539460  0.37028163  0.09917048     0.17700
H283        H  0.23298424  0.34285416  0.14930088     0.17700
F284        F  0.23768099  0.34228557  0.09354532    -0.20000
C285        C  0.02393658  0.33727918  0.27918670    -0.21500
C286        C  0.05479806  0.35728349  0.25612859    -0.09500
C287        C  0.03606440  0.35517563  0.22855125     0.29400
C288        C  0.98722680  0.33171676  0.22396991    -0.21500
C289        C  0.95625209  0.30888684  0.24669986    -0.09500
C290        C  0.97511199  0.31294833  0.27454653     0.29400
F291        F  0.94623584  0.29240566  0.29724977    -0.20000
H292        H  0.03759884  0.33820525  0.30050410     0.17700
H293        H  0.97370587  0.32924853  0.20242931     0.17700
F294        F  0.06520728  0.37466079  0.20585697    -0.20000
C295        C  0.02965585  0.34236169  0.97608042    -0.21500
C296        C  0.05094798  0.35683212  0.00329325    -0.09500
C297        C  0.02226746  0.35090062  0.02710567     0.29400
C298        C  0.97495784  0.32170601  0.52556645    -0.21500
C299        C  0.95427276  0.31468711  0.49817440    -0.09500
C300        C  0.98374826  0.33332300  0.47422731     0.29400
F301        F  0.96511169  0.32766796  0.44750449    -0.20000
H302        H  0.05089897  0.34677922  0.95737238     0.17700
H303        H  0.95293804  0.30783628  0.54435127     0.17700
F304        F  0.04126584  0.36448764  0.05374226    -0.20000
C305        C  0.85211843  0.24109026  0.35834976    -0.21500
C306        C  0.82324205  0.19779706  0.34434570    -0.09500
C307        C  0.79867804  0.15624450  0.36070742     0.29400
C308        C  0.80011612  0.15897591  0.39080929    -0.21500
C309        C  0.82591524  0.20312629  0.40463112    -0.09500
C310        C  0.85341662  0.24384205  0.38821062     0.29400
F311        F  0.87870756  0.28694629  0.40106637    -0.20000
H312        H  0.87079530  0.27350575  0.34608784     0.17700
H313        H  0.77819798  0.12739853  0.40318179     0.17700
F314        F  0.76931287  0.11417300  0.34770884    -0.20000
C315        C  0.84159623  0.22408952  0.10658856    -0.21500
C316        C  0.80756867  0.18142736  0.09407203    -0.09500
C317        C  0.77971398  0.14218423  0.11163073     0.29400
C318        C  0.78402770  0.14693082  0.14161006    -0.21500
C319        C  0.81585756  0.19090396  0.15404672    -0.09500
C320        C  0.84565001  0.22893749  0.13631538     0.29400
F321        F  0.87604414  0.27203740  0.14783402    -0.20000
H322        H  0.86263405  0.25481801  0.09333061     0.17700
H323        H  0.76015009  0.11760189  0.15500262     0.17700
F324        F  0.74587571  0.10077003  0.09989828    -0.20000
C325        C  0.35219267  0.59864185  0.22657847    -0.21500
C326        C  0.35208043  0.57548520  0.25226889    -0.09500
C327        C  0.39442207  0.59286782  0.26740289     0.29400
C328        C  0.43525028  0.63290099  0.25746091    -0.21500
C329        C  0.43520679  0.65645532  0.23192883    -0.09500
C330        C  0.39297620  0.63880597  0.21662632     0.29400
F331        F  0.39119296  0.65988968  0.19197466    -0.20000
H332        H  0.32093959  0.58506804  0.21349201     0.17700
H333        H  0.46721757  0.64566653  0.27000166     0.17700
F334        F  0.39672585  0.57020478  0.29120557    -0.20000
C335        C  0.66510941  0.04121934  0.22938740    -0.21500
C336        C  0.68080491  0.06025524  0.25703774    -0.09500
C337        C  0.66651446  0.02931326  0.28049541     0.29400
C338        C  0.64123662  0.98007367  0.27590370    -0.21500
C339        C  0.62881764  0.96092785  0.24796854    -0.09500
C340        C  0.63871846  0.99204859  0.22486910     0.29400
F341        F  0.62701819  0.97512152  0.19766816    -0.20000
H342        H  0.67562719  0.06453036  0.21099846     0.17700
H343        H  0.63357321  0.95676520  0.29410629     0.17700
F344        F  0.68086696  0.04637425  0.30745901    -0.20000
C345        C  0.41845746  0.60539355  0.98806749    -0.21500
C346        C  0.42985839  0.64912109  0.49007019    -0.09500
C347        C  0.39402810  0.65057466  0.50597009     0.29400
C348        C  0.35717853  0.60931019  0.51837497    -0.21500
C349        C  0.34801186  0.56511252  0.01815131    -0.09500
C350        C  0.38152490  0.56382001  0.99951717     0.29400
F351        F  0.37908281  0.52229945  0.99209951    -0.20000
H352        H  0.44483400  0.60324859  0.97528465     0.17700
H353        H  0.33030987  0.61178348  0.53036904     0.17700
F354        F  0.39568865  0.69218158  0.51102363    -0.20000
C355        C  0.66189430  0.98276066  0.46336849    -0.21500
C356        C  0.63868199  0.95162307  0.48598071    -0.09500
C357        C  0.62982387  0.96854431  0.00603458     0.29400
C358        C  0.65540803  0.01746847  0.01144772    -0.21500
C359        C  0.69137215  0.04784489  0.99282355    -0.09500
C360        C  0.68774015  0.03181338  0.46843287     0.29400
F361        F  0.71149786  0.06108347  0.44636156    -0.20000
H362        H  0.66285038  0.96901334  0.44236193     0.17700
H363        H  0.64895410  0.03113423  0.03104970     0.17700
F364        F  0.59808365  0.93952218  0.02567085    -0.20000
C365        C  0.65019191  0.84803483  0.38811112    -0.21500
C366        C  0.62818440  0.80469623  0.40300779    -0.09500
C367        C  0.60715913  0.76208047  0.38732834     0.29400
C368        C  0.60401553  0.76266783  0.35755626    -0.21500
C369        C  0.62201584  0.80566690  0.34274501    -0.09500
C370        C  0.64724461  0.84859733  0.35799607     0.29400
F371        F  0.66492452  0.89069986  0.34418123    -0.20000
H372        H  0.66581081  0.88128076  0.39984874     0.17700
H373        H  0.58506000  0.72923172  0.34608767     0.17700
F374        F  0.58611183  0.71971521  0.40105356    -0.20000
C375        C  0.64941992  0.81534658  0.13933266    -0.21500
C376        C  0.63323975  0.84289193  0.15294413    -0.09500
C377        C  0.62311993  0.87267084  0.13635424     0.29400
C378        C  0.62451013  0.87117171  0.10642954    -0.21500
C379        C  0.63640446  0.84030153  0.09263954    -0.09500
C380        C  0.65122973  0.81416130  0.10929073     0.29400
F381        F  0.66143480  0.78288318  0.09657859    -0.20000
H382        H  0.65652097  0.79157162  0.15179245     0.17700
H383        H  0.61235389  0.89105270  0.09398279     0.17700
F384        F  0.60752921  0.89978502  0.14902858    -0.20000
C385        C  0.78250474  0.43087760  0.26627061    -0.21500
C386        C  0.78542779  0.44171005  0.23666864    -0.09500
C387        C  0.79273604  0.41327697  0.21730508     0.29400
C388        C  0.79704997  0.37505483  0.22748255    -0.21500
C389        C  0.79245114  0.36341868  0.25698973    -0.09500
C390        C  0.78435623  0.39133376  0.27624760     0.29400
F391        F  0.78071732  0.38192109  0.30474192    -0.20000
H392        H  0.77962841  0.45372650  0.28199413     0.17700
H393        H  0.80425415  0.35449334  0.21217037     0.17700
F394        F  0.79843025  0.42400181  0.18898211    -0.20000
C395        C  0.66053919  0.64090843  0.25969540    -0.21500
C396        C  0.69183059  0.65102761  0.23681453    -0.09500
C397        C  0.69978009  0.68775266  0.21795018     0.29400
C398        C  0.67791709  0.71473555  0.22244766    -0.21500
C399        C  0.64764297  0.70577289  0.24590159    -0.09500
C400        C  0.63813516  0.66749047  0.26406784     0.29400
F401        F  0.60913910  0.65714880  0.28689646    -0.20000
H402        H  0.65492591  0.61350851  0.27491808     0.17700
H403        H  0.68577568  0.74361191  0.20789254     0.17700
F404        F  0.73133535  0.69984038  0.19641220    -0.20000
C405        C  0.80758549  0.38138280  0.99468016    -0.21500
C406        C  0.77386245  0.34705190  0.01336337    -0.09500
C407        C  0.73596657  0.35283634  0.02178456     0.29400
C408        C  0.73641497  0.39209728  0.51143929    -0.21500
C409        C  0.77419654  0.42853720  0.49613312    -0.09500
C410        C  0.80421864  0.42019301  0.98508403     0.29400
F411        F  0.83873399  0.45288652  0.96814593    -0.20000
H412        H  0.83707872  0.37835872  0.98711212     0.17700
H413        H  0.70609142  0.39461872  0.51587892     0.17700
F414        F  0.70287426  0.32149938  0.03995616    -0.20000
C415        C  0.66339944  0.64831572  0.48187685    -0.21500
C416        C  0.68875672  0.64437201  0.50489349    -0.09500
C417        C  0.70186837  0.68286788  0.03278233     0.29400
C418        C  0.67407188  0.70364650  0.03775305    -0.21500
C419        C  0.63459178  0.69184231  0.02059883    -0.09500
C420        C  0.63818214  0.67217192  0.48538020     0.29400
F421        F  0.61707476  0.67870491  0.46213074    -0.20000
H422        H  0.66562018  0.63570275  0.46074990     0.17700
H423        H  0.68541216  0.73159488  0.05368213     0.17700
F424        F  0.74067418  0.69685502  0.04943455    -0.20000
C425        C  0.75096131  0.58634615  0.36263742    -0.21500
C426        C  0.79226871  0.61741856  0.34800176    -0.09500
C427        C  0.83197059  0.65018096  0.36403298     0.29400
C428        C  0.83089839  0.64917639  0.39428048    -0.21500
C429        C  0.79036229  0.61534348  0.40867677    -0.09500
C430        C  0.74986791  0.58523850  0.39246061     0.29400
F431        F  0.70938583  0.55317535  0.40551056    -0.20000
H432        H  0.71983510  0.56104993  0.35085972     0.17700
H433        H  0.86244614  0.67266808  0.40631909     0.17700
F434        F  0.87277437  0.68024955  0.35061124    -0.20000
C435        C  0.86466932  0.64377814  0.14468130    -0.21500
C436        C  0.83115474  0.65151380  0.15840944    -0.09500
C437        C  0.80261158  0.66320243  0.14174649     0.29400
C438        C  0.80450863  0.66246836  0.11169528    -0.21500
C439        C  0.83508818  0.65037824  0.09804622    -0.09500
C440        C  0.86677638  0.64335296  0.11474223     0.29400
F441        F  0.89596894  0.63058199  0.10206609    -0.20000
H442        H  0.88612716  0.63356474  0.15708934     0.17700
H443        H  0.77890419  0.66659672  0.09920627     0.17700
F444        F  0.76861064  0.66892281  0.15434370    -0.20000
C445        C  0.38522506  0.73695351  0.24714801    -0.21500
C446        C  0.42220647  0.77689918  0.26094481    -0.09500
C447        C  0.41890394  0.81818090  0.26287545     0.29400
C448        C  0.38024059  0.81943731  0.25150469    -0.21500
C449        C  0.34270255  0.77948989  0.23795063    -0.09500
C450        C  0.34635734  0.73843009  0.23516684     0.29400
F451        F  0.31288513  0.70009914  0.22069350    -0.20000
H452        H  0.38748921  0.70536188  0.24448539     0.17700
H453        H  0.37946440  0.85211380  0.25401517     0.17700
F454        F  0.45417810  0.85829582  0.27504543    -0.20000
C455        C  0.25237150  0.60161675  0.25089343    -0.21500
C456        C  0.21638331  0.56739856  0.23305704    -0.09500
C457        C  0.17643225  0.57159397  0.22845276     0.29400
C458        C  0.17294906  0.60892822  0.24084901    -0.21500
C459        C  0.20891536  0.64334853  0.25872403    -0.09500
C460        C  0.24872113  0.63888353  0.26371629     0.29400
F461        F  0.28402446  0.67020137  0.28103925    -0.20000
H462        H  0.28237221  0.59831606  0.25648706     0.17700
H463        H  0.14155982  0.61075836  0.23619778     0.17700
F464        F  0.13968943  0.53826546  0.21280131    -0.20000
C465        C  0.96011419  0.64386713  0.23131010    -0.21500
C466        C  0.94374176  0.63891672  0.25969574    -0.09500
C467        C  0.97633068  0.65388272  0.28232520     0.29400
C468        C  0.02467225  0.67733371  0.27640593    -0.21500
C469        C  0.04115031  0.68521190  0.24791604    -0.09500
C470        C  0.00836461  0.66632911  0.22541011     0.29400
F471        F  0.02287380  0.67350995  0.19774194    -0.20000
H472        H  0.93540002  0.63248872  0.21353903     0.17700
H473        H  0.04946497  0.69154918  0.29411110     0.17700
F474        F  0.96176549  0.64979014  0.30989872    -0.20000
C475        C  0.40503649  0.79877712  0.02469940    -0.21500
C476        C  0.43282692  0.79199883  0.00493315    -0.09500
C477        C  0.41903126  0.78230882  0.47507817     0.29400
C478        C  0.37724359  0.78080337  0.46668746    -0.21500
C479        C  0.35124436  0.78974416  0.48672168    -0.09500
C480        C  0.36530556  0.80049456  0.01539125     0.29400
F481        F  0.34123038  0.81041148  0.03516745    -0.20000
H482        H  0.41532822  0.80506817  0.04708431     0.17700
H483        H  0.36642086  0.77482606  0.44438572     0.17700
F484        F  0.44564579  0.77839612  0.45430774    -0.20000
C485        C  0.26621052  0.61224007  0.48834860    -0.21500
C486        C  0.22391451  0.56866344  0.48671022    -0.09500
C487        C  0.18355294  0.56915734  0.00179523     0.29400
C488        C  0.18561662  0.61057166  0.01181888    -0.21500
C489        C  0.22750139  0.65441818  0.01116644    -0.09500
C490        C  0.26736691  0.65292258  0.49994644     0.29400
F491        F  0.30904781  0.69375333  0.50134678    -0.20000
H492        H  0.29857145  0.61453493  0.48128281     0.17700
H493        H  0.15338186  0.60863631  0.01908408     0.17700
F494        F  0.14124775  0.52847408  0.00294322    -0.20000
C495        C  0.98098106  0.64612987  0.02461205    -0.21500
C496        C  0.95032242  0.64081272  0.00202296    -0.09500
C497        C  0.96986450  0.65416802  0.47765496     0.29400
C498        C  0.01859474  0.67639480  0.47317827    -0.21500
C499        C  0.04962910  0.68824660  0.49646437    -0.09500
C500        C  0.02976367  0.66913797  0.02020689     0.29400
F501        F  0.05860729  0.67676068  0.04299219    -0.20000
H502        H  0.96749305  0.63519928  0.04608536     0.17700
H503        H  0.03221373  0.68718211  0.45171324     0.17700
F504        F  0.94111658  0.64546721  0.45467219    -0.20000
C505        C  0.14086396  0.77057116  0.39105895    -0.21500
C506        C  0.17307254  0.81152755  0.40614521    -0.09500
C507        C  0.20332271  0.85276217  0.39088683     0.29400
C508        C  0.20349551  0.85174691  0.36083994    -0.21500
C509        C  0.17420778  0.80939363  0.34591533    -0.09500
C510        C  0.14166506  0.76926571  0.36114444     0.29400
F511        F  0.11346005  0.72777286  0.34722193    -0.20000
H512        H  0.11807722  0.73818782  0.40255726     0.17700
H513        H  0.22944931  0.88269925  0.34936425     0.17700
F514        F  0.23575924  0.89231385  0.40495847    -0.20000
C515        C  0.23386224  0.84376401  0.11295889    -0.21500
C516        C  0.19360682  0.81975149  0.09560667    -0.09500
C517        C  0.14896652  0.79754846  0.10846064     0.30600
C518        C  0.14522762  0.79625133  0.13853248    -0.21500
C519        C  0.18593935  0.81731441  0.15583153    -0.09500
C520        C  0.23016214  0.84271073  0.14275387     0.29400
F521        F  0.27007660  0.86319993  0.15890890    -0.20000
H522        H  0.26853229  0.86124864  0.10339178     0.17700
H523        H  0.11092608  0.77548103  0.14825057     0.17700
F524        F  0.10951530  0.77341795  0.09217443    -0.20000
C525        C  0.60747899  0.35052557  0.23030779    -0.21500
C526        C  0.56500492  0.35008151  0.22558700    -0.09500
C527        C  0.56380659  0.39188012  0.23204230     0.29400
C528        C  0.60266118  0.43123587  0.24438371    -0.21500
C529        C  0.64455228  0.43108699  0.25054552    -0.09500
C530        C  0.64649236  0.39003874  0.24311610     0.29400
F531        F  0.68621586  0.38817871  0.24750845    -0.20000
H532        H  0.60993049  0.31959666  0.22489614     0.17700
H533        H  0.60018072  0.46262336  0.24868145     0.17700
F534        F  0.52437537  0.39449729  0.22706705    -0.20000
C535        C  0.57620983  0.19960985  0.23467418    -0.21500
C536        C  0.57649011  0.23097064  0.25579559    -0.09500
C537        C  0.62021591  0.26857766  0.26493270     0.29400
C538        C  0.66221550  0.27392558  0.25341330    -0.21500
C539        C  0.66156574  0.24138000  0.23309039    -0.09500
C540        C  0.61791533  0.20447303  0.22369780     0.29400
F541        F  0.61571579  0.17118850  0.20516848    -0.20000
H542        H  0.54335604  0.17061782  0.22656131     0.17700
H543        H  0.69527216  0.30162931  0.26197660     0.17700
F544        F  0.62244246  0.29960189  0.28520738    -0.20000
C545        C  0.34874363  0.01564686  0.22947668    -0.21500
C546        C  0.35883037  0.04616956  0.25299373    -0.09500
C547        C  0.34383497  0.02632480  0.28051310     0.29400
C548        C  0.31759086  0.97690864  0.28404647    -0.21500
C549        C  0.30482060  0.94665632  0.26014399    -0.09500
C550        C  0.32139224  0.96645140  0.23290320     0.29400
F551        F  0.30952391  0.93809910  0.20935402    -0.20000
H552        H  0.35939394  0.02995817  0.20811984     0.17700
H553        H  0.30484166  0.96245277  0.30515017     0.17700
F554        F  0.35317128  0.05477371  0.30384473    -0.20000
C555        C  0.33594792  0.36475568  0.26398428    -0.21500
C556        C  0.31722504  0.36450581  0.23677659    -0.09500
C557        C  0.32467626  0.34079297  0.21404046     0.29400
C558        C  0.34674152  0.31413741  0.21927118    -0.21500
C559        C  0.36257864  0.31179030  0.24703222    -0.09500
C560        C  0.35887862  0.33909402  0.26907077     0.29400
F561        F  0.37355967  0.33760599  0.29609158    -0.20000
H562        H  0.33022915  0.38263409  0.28181669     0.17700
H563        H  0.34989378  0.29383773  0.20185790     0.17700
F564        F  0.30699457  0.33987379  0.18753619    -0.20000
C565        C  0.35792833  0.16293443  0.39068844    -0.21500
C566        C  0.38740983  0.20381957  0.40698479    -0.09500
C567        C  0.41428042  0.24715659  0.39276982     0.29400
C568        C  0.41440164  0.24902706  0.36296012    -0.21500
C569        C  0.38790233  0.20786613  0.34645293    -0.09500
C570        C  0.35817683  0.16485133  0.36047425     0.29400
F571        F  0.33276601  0.12425878  0.34512448    -0.20000
H572        H  0.33751590  0.12901956  0.40120342     0.17700
H573        H  0.43720705  0.28262379  0.35262536     0.17700
F574        F  0.44268747  0.28744490  0.40775184    -0.20000
C575        C  0.34008722  0.18161788  0.14228457    -0.21500
C576        C  0.36175226  0.15965107  0.15659158    -0.09500
C577        C  0.37861347  0.13479331  0.14048564     0.29400
C578        C  0.37939181  0.13707723  0.11063118    -0.21500
C579        C  0.36288796  0.16369438  0.09626816    -0.09500
C580        C  0.34034494  0.18340130  0.11213238     0.29400
F581        F  0.32416673  0.20946668  0.09881460    -0.20000
H582        H  0.32739964  0.20139210  0.15434073     0.17700
H583        H  0.39690937  0.12168719  0.09883228     0.17700
F584        F  0.39936339  0.11286838  0.15378994    -0.20000
C585        C  0.59809947  0.39092726  0.48460753    -0.21500
C586        C  0.57730079  0.35212397  0.50299116    -0.09500
C587        C  0.59631170  0.35952656  0.03218527     0.29400
C588        C  0.63463292  0.40227313  0.04172660    -0.21500
C589        C  0.65375091  0.44199589  0.02415119    -0.09500
C590        C  0.63601363  0.43418055  0.49411941     0.29400
F591        F  0.65388144  0.47123503  0.47566522    -0.20000
H592        H  0.58358717  0.38848776  0.46336396     0.17700
H593        H  0.64865326  0.40462872  0.06311301     0.17700
F594        F  0.57648324  0.32388987  0.05136565    -0.20000
C595        C  0.61790005  0.17857146  0.50664804    -0.21500
C596        C  0.65195416  0.21883012  0.49151513    -0.09500
C597        C  0.64611348  0.25860791  0.49047326     0.29400
C598        C  0.60835177  0.25831594  0.00223068    -0.21500
C599        C  0.57393809  0.21798825  0.01697873    -0.09500
C600        C  0.57914972  0.17788222  0.01780323     0.29400
F601        F  0.54649002  0.13781597  0.03108412    -0.20000
H602        H  0.62082560  0.14699684  0.50835127     0.17700
H603        H  0.60480652  0.28929336  0.00022609     0.17700
F604        F  0.67657751  0.29758045  0.47546177    -0.20000
C605        C  0.34588825  0.01921293  0.46979311    -0.21500
C606        C  0.36652348  0.05044251  0.49292754    -0.09500
C607        C  0.36750947  0.03380487  0.01506522     0.29400
C608        C  0.33951755  0.98495163  0.02010252    -0.21500
C609        C  0.30604770  0.95528221  0.99970752    -0.09500
C610        C  0.31815966  0.97033989  0.47462270     0.29400
F611        F  0.29638657  0.94115551  0.45194999    -0.20000
H612        H  0.34826824  0.03286259  0.44833307     0.17700
H613        H  0.34215369  0.97084497  0.04058797     0.17700
F614        F  0.39609629  0.06229902  0.03635303    -0.20000
C615        C  0.37632604  0.34051849  0.99342314    -0.21500
C616        C  0.36874907  0.31402273  0.01861610    -0.09500
C617        C  0.34861916  0.32471965  0.53541411     0.29400
C618        C  0.32211128  0.34694579  0.52990857    -0.21500
C619        C  0.31459691  0.35693794  0.50158602    -0.09500
C620        C  0.35006807  0.36270498  0.98750878     0.29400
F621        F  0.35681170  0.38585991  0.96227882    -0.20000
H622        H  0.40067078  0.34152967  0.97743502     0.17700
H623        H  0.30605160  0.35494051  0.54769466     0.17700
F624        F  0.35322245  0.31336940  0.56275367    -0.20000
Fe625      Fe  0.36381888  0.18342376  0.00171436     1.65800
Fe626      Fe  0.46071385  0.25531316  0.53591421     1.73200
Fe627      Fe  0.46740117  0.20540472  0.97639339     1.54400
O628        O  0.41482077  0.13260079  0.97074913    -0.81800
O629        O  0.49706858  0.31071622  0.01043192    -0.80100
O630        O  0.36131057  0.11665774  0.50485089    -0.84300
O631        O  0.36426114  0.18219380  0.95611694    -0.79200
O632        O  0.49338428  0.17865900  0.50946229    -0.81000
O633        O  0.40937329  0.27741590  0.53623762    -0.83700
C634        C  0.39648646  0.20632854  0.93786382     0.97100
C635        C  0.38145564  0.10507914  0.98768335     1.04500
O636        O  0.43045708  0.21218933  0.50456824    -1.12700
O637        O  0.42421081  0.20179250  0.56410564    -0.75100
O638        O  0.35263044  0.17701331  0.54608666    -0.78600
O639        O  0.43975704  0.22779712  0.94474230    -0.79300
C640        C  0.37986916  0.18039907  0.56679525     0.96000
O641        O  0.36551644  0.24223003  0.49748059    -0.77300
O642        O  0.51885527  0.24174846  0.53668411    -0.82400
C643        C  0.53103559  0.31286475  0.99694187     0.98600
C644        C  0.52583395  0.21091310  0.52397781     1.04500
O645        O  0.52618922  0.27718614  0.98207104    -0.78100
C646        C  0.38205249  0.27545872  0.51580945     1.02800
Fe647      Fe  0.35828019  0.17806914  0.75154920     1.65800
Fe648      Fe  0.45675229  0.18966190  0.72342784     1.73200
Fe649      Fe  0.46320499  0.26750534  0.77123778     1.54400
O650        O  0.41243914  0.28897969  0.77052866    -0.81800
O651        O  0.48820857  0.18123164  0.75833462    -0.80100
O652        O  0.35742765  0.23842966  0.74042260    -0.84300
O653        O  0.36081621  0.19270921  0.79652063    -0.79200
O654        O  0.48486909  0.30131856  0.73343047    -0.81000
O655        O  0.40461247  0.11751240  0.72772926    -0.83700
C656        C  0.39398024  0.21048431  0.81544629     0.97100
C657        C  0.37883078  0.27845221  0.75280765     1.04500
O658        O  0.42540117  0.21095231  0.74911077    -1.12700
O659        O  0.42252103  0.19644886  0.68912293    -0.75100
O660        O  0.34956320  0.15996579  0.70703472    -0.78600
O661        O  0.43728870  0.23257455  0.80874619    -0.79300
C662        C  0.37815411  0.17332794  0.68581421     0.96000
O663        O  0.35718117  0.11659539  0.76202957    -0.77300
O664        O  0.51591784  0.26048120  0.71685814    -0.82400
C665        C  0.52488026  0.21831605  0.76601305     0.98600
C666        C  0.51948306  0.30061120  0.72288604     1.04500
O667        O  0.52226061  0.25508055  0.77316418    -0.78100
C668        C  0.37320912  0.09565480  0.74681353     1.02800
Fe669      Fe  0.17851961  0.82100908  0.50164440     1.65800
Fe670      Fe  0.26564914  0.80577623  0.52476207     1.73200
Fe671      Fe  0.19918096  0.74272129  0.96939523     1.54400
O672        O  0.12515231  0.71737339  0.97051002    -0.81800
O673        O  0.30507164  0.82813401  0.98768138    -0.80100
O674        O  0.11836647  0.75834202  0.50905887    -0.84300
O675        O  0.16234858  0.81505232  0.95581065    -0.79200
O676        O  0.18672054  0.69400661  0.50333136    -0.81000
O677        O  0.28359162  0.87772464  0.52711688    -0.83700
C678        C  0.18351824  0.80838193  0.93490407     0.97100
C679        C  0.09984380  0.72117082  0.99013830     1.04500
O680        O  0.21322654  0.78837275  0.49963966    -1.12700
O681        O  0.22280975  0.78856666  0.55933468    -0.75100
O682        O  0.18737713  0.82943483  0.54675078    -0.78600
O683        O  0.20981575  0.79062973  0.93824333    -0.79300
C684        C  0.19807314  0.80743315  0.56535337     0.96000
O685        O  0.23848745  0.88363537  0.49369866    -0.77300
O686        O  0.25654111  0.73462794  0.52351319    -0.82400
C687        C  0.30851865  0.79479133  0.97729335     0.98600
C688        C  0.22251644  0.69516928  0.51392063     1.04500
O689        O  0.27170132  0.75900202  0.96674840    -0.78100
C690        C  0.27630398  0.90162486  0.50812820     1.02800
Fe691      Fe  0.17111686  0.81521658  0.74993581     1.65800
Fe692      Fe  0.25191097  0.79438999  0.77830481     1.73200
Fe693      Fe  0.18161087  0.72337608  0.72777380     1.54400
O694        O  0.11021615  0.70430141  0.72868155    -0.81800
O695        O  0.29258564  0.80659717  0.74356708    -0.80100
O696        O  0.10787224  0.75659424  0.75843829    -0.84300
O697        O  0.16097827  0.80616859  0.70489009    -0.79200
O698        O  0.16779589  0.68565340  0.76417702    -0.81000
O699        O  0.27425562  0.86774158  0.77797513    -0.83700
C700        C  0.17521491  0.78794978  0.68576439     0.97100
C701        C  0.08825009  0.71648631  0.74613956     1.04500
O702        O  0.20132929  0.77817781  0.75167580    -1.12700
O703        O  0.20863396  0.78409006  0.81200294    -0.75100
O704        O  0.17830838  0.82748082  0.79478565    -0.78600
O705        O  0.19273764  0.76204815  0.69186997    -0.79300
C706        C  0.18771421  0.80768474  0.81550017     0.96000
O707        O  0.23384963  0.87507236  0.74196034    -0.77300
O708        O  0.23922103  0.72228437  0.78092056    -0.82400
C709        C  0.29213637  0.77120093  0.73243021     0.98600
C710        C  0.20273119  0.68362678  0.77284339     1.04500
O711        O  0.25266933  0.73477874  0.72513180    -0.78100
C712        C  0.26877322  0.89272318  0.75890370     1.02800
Fe713      Fe  0.82125446  0.64543451  0.50330373     1.65800
Fe714      Fe  0.80522701  0.54666528  0.53529570     1.73200
Fe715      Fe  0.72823142  0.54225815  0.98609651     1.54400
O716        O  0.70945414  0.59542176  0.98639149    -0.81800
O717        O  0.80984455  0.50798363  0.00149585    -0.80100
O718        O  0.76189436  0.64878888  0.51267174    -0.84300
O719        O  0.80675624  0.64204235  0.95783927    -0.79200
O720        O  0.69684546  0.52146662  0.52184112    -0.81000
O721        O  0.87798867  0.59733705  0.53105783    -0.83700
C722        C  0.78588523  0.60736960  0.94003956     0.97100
C723        C  0.72317316  0.63143187  0.00284725     1.04500
O724        O  0.78719169  0.57791130  0.50707080    -1.12700
O725        O  0.79758492  0.58453124  0.56736533    -0.75100
O726        O  0.83800940  0.65658501  0.54779233    -0.78600
O727        O  0.76140456  0.56456325  0.94804841    -0.79300
C728        C  0.82178168  0.62931563  0.56962152     0.96000
O729        O  0.88121032  0.64314766  0.49466032    -0.77300
O730        O  0.73391658  0.48860138  0.54101470    -0.82400
C731        C  0.77203315  0.47438052  0.99149454     0.98600
C732        C  0.69567721  0.48532229  0.53153789     1.04500
O733        O  0.73769698  0.48085645  0.98464536    -0.78100
C734        C  0.90047828  0.62617445  0.51066781     1.02800
Fe735      Fe  0.81404462  0.64215805  0.75434841     1.65800
Fe736      Fe  0.73847930  0.54395725  0.71914510     1.73200
Fe737      Fe  0.79327643  0.53670281  0.77664421     1.54400
O738        O  0.86416513  0.58892059  0.78323417    -0.81800
O739        O  0.68758324  0.50887123  0.74830536    -0.80100
O740        O  0.87636337  0.64343871  0.75051318    -0.84300
O741        O  0.81553931  0.63849754  0.79981888    -0.79200
O742        O  0.81723596  0.51735154  0.74262191    -0.81000
O743        O  0.71684379  0.59555719  0.71892501    -0.83700
C744        C  0.79276054  0.60474176  0.81765790     0.97100
C745        C  0.89101278  0.62164635  0.76599516     1.04500
O746        O  0.78122524  0.57466686  0.75049566    -1.12700
O747        O  0.79027522  0.58145829  0.69017286    -0.75100
O748        O  0.81634828  0.65333986  0.70940495    -0.78600
O749        O  0.77240191  0.56126602  0.81029491    -0.79300
C750        C  0.81144133  0.62633366  0.68809514     0.96000
O751        O  0.75159617  0.64103091  0.75741481    -0.77300
O752        O  0.75231385  0.48524303  0.71745911    -0.82400
C753        C  0.68587681  0.47282355  0.75925418     0.98600
C754        C  0.78544567  0.48193644  0.72998411     1.04500
O755        O  0.72267963  0.47631392  0.77144453    -0.78100
C756        C  0.71988721  0.62515003  0.73820779     1.02800
Fe757      Fe  0.64298839  0.82393795  0.49821974     1.65800
Fe758      Fe  0.54187126  0.74813258  0.52899617     1.73200
Fe759      Fe  0.53720750  0.79869066  0.97019437     1.54400
O760        O  0.59090463  0.86995357  0.96330987    -0.81800
O761        O  0.50220259  0.69378076  0.00621265    -0.80100
O762        O  0.64337527  0.88619631  0.50111787    -0.84300
O763        O  0.63938699  0.81841177  0.95239618    -0.79200
O764        O  0.51440949  0.82543270  0.49820102    -0.81000
O765        O  0.59287638  0.72584821  0.53248857    -0.83700
C766        C  0.60690834  0.79368026  0.93409823     0.97100
C767        C  0.62305296  0.89825323  0.98077174     1.04500
O768        O  0.57564250  0.79080093  0.49855429    -1.12700
O769        O  0.57560474  0.80146268  0.55818686    -0.75100
O770        O  0.64848552  0.82458368  0.54373803    -0.78600
O771        O  0.56373352  0.77279072  0.94067111    -0.79300
C772        C  0.61931384  0.82058146  0.56319642     0.96000
O773        O  0.64100567  0.76081087  0.49552343    -0.77300
O774        O  0.48425147  0.76276605  0.52608471    -0.82400
C775        C  0.47012490  0.69229788  0.99063241     0.98600
C776        C  0.48017616  0.79432159  0.51177973     1.04500
O777        O  0.47687080  0.72844343  0.97590334    -0.78100
C778        C  0.62209050  0.72751658  0.51358257     1.02800
Fe779      Fe  0.63356949  0.82534777  0.74909811     1.65800
Fe780      Fe  0.53155839  0.73197264  0.76783207     1.73200
Fe781      Fe  0.53247634  0.80830810  0.72083681     1.54400
O782        O  0.58152710  0.88184440  0.72596407    -0.81800
O783        O  0.51233247  0.69995580  0.72921313    -0.80100
O784        O  0.63069234  0.88470816  0.75991484    -0.84300
O785        O  0.64067073  0.84199868  0.70463163    -0.79200
O786        O  0.50031439  0.81402502  0.75604767    -0.81000
O787        O  0.58491675  0.71421789  0.76717756    -0.83700
C788        C  0.61211046  0.82708267  0.68318396     0.97100
C789        C  0.61266965  0.90443561  0.74537208     1.04500
O790        O  0.56659204  0.78940203  0.74631769    -1.12700
O791        O  0.55635995  0.76662644  0.80575222    -0.75100
O792        O  0.63238296  0.81120685  0.79369499    -0.78600
O793        O  0.56766431  0.80471616  0.68600776    -0.79300
C794        C  0.59977473  0.79078491  0.81245590     0.96000
O795        O  0.63917704  0.76743268  0.73837355    -0.77300
O796        O  0.46987047  0.74032523  0.77017046    -0.82400
C797        C  0.47484095  0.69718793  0.72107001     0.98600
C798        C  0.46508210  0.77610593  0.76395111     1.04500
O799        O  0.47554374  0.73561623  0.71398740    -0.78100
C800        C  0.62019358  0.72749792  0.75068113     1.02800
Fe801      Fe  0.82186982  0.18189443  0.99971422     1.65800
Fe802      Fe  0.73455030  0.19459560  0.52506778     1.73200
Fe803      Fe  0.80390177  0.26733141  0.97464305     1.54400
O804        O  0.87646219  0.28924673  0.97624077    -0.81800
O805        O  0.69664936  0.18158337  0.98499009    -0.80100
O806        O  0.88191940  0.24397367  0.00992916    -0.84300
O807        O  0.83536190  0.19241645  0.95529275    -0.79200
O808        O  0.81749368  0.30570387  0.51424470    -0.81000
O809        O  0.71451998  0.12253321  0.52211513    -0.83700
C810        C  0.81859605  0.20591285  0.93489413     0.97100
C811        C  0.90049407  0.28068808  0.99441536     1.04500
O812        O  0.78849206  0.21571346  0.50065950    -1.12700
O813        O  0.77303879  0.20269549  0.56088342    -0.75100
O814        O  0.81466679  0.16999065  0.54446912    -0.78600
O815        O  0.79585053  0.22753630  0.93908736    -0.79300
C816        C  0.79841568  0.18394256  0.56498504     0.96000
O817        O  0.76358603  0.11921809  0.98897523    -0.77300
O818        O  0.74558299  0.26588266  0.53020025    -0.82400
C819        C  0.69410042  0.21729280  0.97843090     0.98600
C820        C  0.78173729  0.30565294  0.52348306     1.04500
O821        O  0.73219651  0.25471966  0.97108215    -0.78100
C822        C  0.72405063  0.10075310  0.50289080     1.02800
Fe823      Fe  0.82089880  0.17994374  0.75042713     1.65800
Fe824      Fe  0.74495650  0.20646486  0.78001470     1.73200
Fe825      Fe  0.80682494  0.26673003  0.72331470     1.54400
O826        O  0.87925187  0.28600274  0.72299062    -0.81800
O827        O  0.69550604  0.18950211  0.74936315    -0.80100
O828        O  0.88490390  0.23945436  0.75595099    -0.84300
O829        O  0.82827492  0.18330024  0.70534432    -0.79200
O830        O  0.82492310  0.31403062  0.75559386    -0.81000
O831        O  0.72144719  0.13264039  0.78213414    -0.83700
C832        C  0.80988371  0.19559468  0.68535903     0.97100
C833        C  0.90326770  0.27692113  0.74107970     1.04500
O834        O  0.79068662  0.21736955  0.75086687    -1.12700
O835        O  0.79499169  0.22261638  0.81072683    -0.75100
O836        O  0.81790469  0.17236606  0.79552942    -0.78600
O837        O  0.79069967  0.22038926  0.68999033    -0.79300
C838        C  0.81372122  0.19734464  0.81524192     0.96000
O839        O  0.75670609  0.12025015  0.74515309    -0.77300
O840        O  0.75880285  0.27854305  0.77949279    -0.82400
C841        C  0.69700685  0.22270012  0.73481121     0.98600
C842        C  0.79125958  0.31547638  0.76706754     1.04500
O843        O  0.73552106  0.25432568  0.72321115    -0.78100
C844        C  0.72290783  0.10553319  0.76268620     1.02800
Fe845      Fe  0.18159601  0.35645591  0.99891725     1.65800
Fe846      Fe  0.20142275  0.45771730  0.52819841     1.73200
Fe847      Fe  0.27311661  0.46162675  0.98139796     1.54400
O848        O  0.29468804  0.41073696  0.98293394    -0.81800
O849        O  0.18714565  0.48733289  0.99555609    -0.80100
O850        O  0.24167064  0.35273272  0.50858675    -0.84300
O851        O  0.19468884  0.35912541  0.95412480    -0.79200
O852        O  0.30881350  0.48257897  0.51364432    -0.81000
O853        O  0.12890793  0.40658060  0.52696829    -0.83700
C854        C  0.21564599  0.39254662  0.93577187     0.97100
C855        C  0.28148046  0.37454639  0.99896117     1.04500
O856        O  0.21751375  0.42359752  0.50118009    -1.12700
O857        O  0.21149918  0.42365810  0.56161519    -0.75100
O858        O  0.16869289  0.34989952  0.54395148    -0.78600
O859        O  0.24041059  0.43594921  0.94302780    -0.79300
C860        C  0.18625993  0.37905474  0.56501792     0.96000
O861        O  0.12178185  0.35842821  0.49089828    -0.77300
O862        O  0.27295482  0.51746885  0.53130014    -0.82400
C863        C  0.22298153  0.52347608  0.98627791     0.98600
C864        C  0.31107246  0.51970412  0.52266707     1.04500
O865        O  0.25936943  0.52064190  0.97895798    -0.78100
C866        C  0.10424306  0.37637882  0.50753963     1.02800
Fe867      Fe  0.18506853  0.35666720  0.74957246     1.65800
Fe868      Fe  0.20020724  0.45869473  0.77520547     1.73200
Fe869      Fe  0.25855291  0.45862414  0.71775424     1.54400
O870        O  0.28296660  0.40908314  0.71569992    -0.81800
O871        O  0.17699680  0.48311451  0.74316018    -0.80100
O872        O  0.24925595  0.36236831  0.75342169    -0.84300
O873        O  0.18512480  0.34941741  0.70430141    -0.79200
O874        O  0.30961138  0.49350952  0.74718852    -0.81000
O875        O  0.12851159  0.40380970  0.77831165    -0.83700
C876        C  0.18822710  0.37765921  0.68427544     0.97100
C877        C  0.28183298  0.38062991  0.73508741     1.04500
O878        O  0.21488313  0.42439890  0.74778209    -1.12700
O879        O  0.22158233  0.43241333  0.80772418    -0.75100
O880        O  0.18160504  0.35595225  0.79518066    -0.78600
O881        O  0.20721471  0.42207643  0.68819328    -0.79300
C882        C  0.20358380  0.38886553  0.81385132     0.96000
O883        O  0.12092580  0.35120405  0.74507607    -0.77300
O884        O  0.27070169  0.51999657  0.77249599    -0.82400
C885        C  0.20892258  0.51865338  0.73084933     0.98600
C886        C  0.30857377  0.52689861  0.75996699     1.04500
O887        O  0.24226586  0.51560337  0.71855988    -0.78100
C888        C  0.10362719  0.37120854  0.75995017     1.02800
C889        C  0.17104943  0.34969846  0.89082387    -0.21500
C890        C  0.21338917  0.38193831  0.90466661    -0.09500
C891        C  0.25385363  0.40864433  0.88795911     0.29400
C892        C  0.25093767  0.40680712  0.85813987    -0.21500
C893        C  0.20784515  0.37814247  0.84415089    -0.09500
C894        C  0.16819906  0.34782026  0.86063678     0.29400
F895        F  0.12592762  0.31995240  0.84773444    -0.20000
H896        H  0.13955586  0.32857424  0.90325924     0.17700
H897        H  0.28199463  0.43018131  0.84588161     0.17700
F898        F  0.29601137  0.43846861  0.90050869    -0.20000
C899        C  0.14841661  0.37967062  0.61000930    -0.21500
C900        C  0.17342453  0.36253243  0.59463687    -0.09500
C901        C  0.19323370  0.33903354  0.60928106     0.29400
C902        C  0.19282324  0.33813284  0.63943117    -0.21500
C903        C  0.17255956  0.36058900  0.65481051    -0.09500
C904        C  0.14781165  0.37863754  0.63983014     0.29400
F905        F  0.12744545  0.40001437  0.65412467    -0.20000
H906        H  0.13268186  0.39759063  0.59894628     0.17700
H907        H  0.21243195  0.32442457  0.65063859     0.17700
F908        F  0.21703899  0.32160292  0.59470801    -0.20000
C909        C  0.02211099  0.34449559  0.77815421    -0.21500
C910        C  0.05294694  0.35474814  0.75513187    -0.09500
C911        C  0.03419288  0.34443046  0.72697447     0.29400
C912        C  0.98549699  0.32256411  0.72215624    -0.21500
C913        C  0.95450000  0.30946666  0.74530729    -0.09500
C914        C  0.97330617  0.32143066  0.77336311     0.29400
F915        F  0.94419192  0.30910564  0.79627890    -0.20000
H916        H  0.03555205  0.35175635  0.79993094     0.17700
H917        H  0.97189179  0.31319087  0.70047492     0.17700
F918        F  0.06298879  0.35415586  0.70408059    -0.20000
C919        C  0.03277411  0.35480989  0.47750975    -0.21500
C920        C  0.05326893  0.35977709  0.50479165    -0.09500
C921        C  0.02398341  0.34479383  0.52895030     0.29400
C922        C  0.97319182  0.32796487  0.02387048    -0.21500
C923        C  0.95200960  0.31217584  0.99678108    -0.09500
C924        C  0.98074490  0.32075417  0.97276659     0.29400
F925        F  0.96129620  0.30505047  0.94643142    -0.20000
H926        H  0.05477678  0.36656733  0.45862681     0.17700
H927        H  0.95151963  0.32128167  0.04268202     0.17700
F928        F  0.04251710  0.34929637  0.55562083    -0.20000
C929        C  0.85715097  0.23800354  0.85915784    -0.21500
C930        C  0.82731780  0.19523081  0.84494636    -0.09500
C931        C  0.80121024  0.15361333  0.86099178     0.29400
C932        C  0.80158228  0.15598390  0.89102306    -0.21500
C933        C  0.82822577  0.19977179  0.90502087    -0.09500
C934        C  0.85770417  0.24031248  0.88900845     0.29400
F935        F  0.88380617  0.28299416  0.90220106    -0.20000
H936        H  0.87700798  0.27043932  0.84707392     0.17700
H937        H  0.77819547  0.12461456  0.90314360     0.17700
F938        F  0.77118795  0.11208194  0.84767430    -0.20000
C939        C  0.84917121  0.20814387  0.60870554    -0.21500
C940        C  0.80648592  0.17667821  0.59510458    -0.09500
C941        C  0.76747792  0.14606940  0.61184378     0.29400
C942        C  0.77016879  0.14922897  0.64174077    -0.21500
C943        C  0.81182894  0.18276758  0.65536196    -0.09500
C944        C  0.85187614  0.21128294  0.63874086     0.29400
F945        F  0.89202083  0.24534317  0.65142125    -0.20000
H946        H  0.87909032  0.23296567  0.59612478     0.17700
H947        H  0.73875543  0.12781747  0.65421050     0.17700
F948        F  0.72555924  0.11599476  0.59915269    -0.20000
C949        C  0.34638791  0.60003862  0.72953490    -0.21500
C950        C  0.34882971  0.57494318  0.75367199    -0.09500
C951        C  0.39324290  0.58891398  0.76525958     0.29400
C952        C  0.43345521  0.62775032  0.75386720    -0.21500
C953        C  0.43090339  0.65351869  0.73012865    -0.09500
C954        C  0.38671884  0.63883019  0.71792798     0.29400
F955        F  0.38238529  0.66189694  0.69496781    -0.20000
H956        H  0.31348817  0.58908655  0.71873388     0.17700
H957        H  0.46694246  0.63784243  0.76399148     0.17700
F958        F  0.39797631  0.56385741  0.78694279    -0.20000
C959        C  0.66688942  0.03652664  0.73284779    -0.21500
C960        C  0.68571030  0.05507134  0.76012527    -0.09500
C961        C  0.67422748  0.02375553  0.78323919     0.29400
C962        C  0.64760550  0.97461029  0.77852325    -0.21500
C963        C  0.63124919  0.95584667  0.75082863    -0.09500
C964        C  0.63939071  0.98745648  0.72823566     0.29400
F965        F  0.62446604  0.97104346  0.70123501    -0.20000
H966        H  0.67542773  0.06015626  0.71472655     0.17700
H967        H  0.64165562  0.95102675  0.79635379     0.17700
F968        F  0.69215522  0.04032118  0.80977415    -0.20000
C969        C  0.42759550  0.60525843  0.48710157    -0.21500
C970        C  0.42318366  0.64955898  0.99419066    -0.09500
C971        C  0.38940905  0.65110237  0.01218662     0.29400
C972        C  0.35241266  0.60939297  0.02404754    -0.21500
C973        C  0.35445638  0.56525580  0.51485154    -0.09500
C974        C  0.39078626  0.56406712  0.49908108     0.29400
F975        F  0.39124034  0.52298823  0.49507192    -0.20000
H976        H  0.45574372  0.60319866  0.47636647     0.17700
H977        H  0.32717736  0.61178935  0.03780519     0.17700
F978        F  0.39352291  0.69309661  0.01981875    -0.20000
C979        C  0.67244411  0.97975016  0.96184185    -0.21500
C980        C  0.63906685  0.94927322  0.98155158    -0.09500
C981        C  0.63811643  0.97031780  0.51315653     0.29400
C982        C  0.66339813  0.01926075  0.51814104    -0.21500
C983        C  0.69039510  0.05027083  0.49625944    -0.09500
C984        C  0.69834355  0.02861606  0.96727997     0.29400
F985        F  0.73143615  0.05671595  0.94797935    -0.20000
H986        H  0.68059384  0.96540671  0.94315958     0.17700
H987        H  0.66437269  0.03259137  0.53958529     0.17700
F988        F  0.61537539  0.94086731  0.53537208    -0.20000
C989        C  0.64667904  0.83276218  0.88807760    -0.21500
C990        C  0.61738250  0.79120107  0.90355791    -0.09500
C991        C  0.58867252  0.74895276  0.88838921     0.29400
C992        C  0.58570256  0.74923541  0.85863917    -0.21500
C993        C  0.61144846  0.79143641  0.84318157    -0.09500
C994        C  0.64388102  0.83292030  0.85792160     0.29400
F995        F  0.66947734  0.87422735  0.84355291    -0.20000
H996        H  0.66856909  0.86586225  0.89935370     0.17700
H997        H  0.56131459  0.71657580  0.84767564     0.17700
F998        F  0.56050058  0.70797944  0.90255129    -0.20000
C999        C  0.64648473  0.80995425  0.64020498    -0.21500
C1000       C  0.62971389  0.83727486  0.65351591    -0.09500
C1001       C  0.61902417  0.86628925  0.63656600     0.29400
C1002       C  0.62141340  0.86505468  0.60669394    -0.21500
C1003       C  0.63437124  0.83482495  0.59317540    -0.09500
C1004       C  0.64881276  0.80865542  0.61014560     0.29400
F1005       F  0.65952215  0.77754766  0.59769624    -0.20000
H1006       H  0.65366795  0.78644335  0.65288384     0.17700
H1007       H  0.60925902  0.88470222  0.59400979     0.17700
F1008       F  0.60202455  0.89248772  0.64882864    -0.20000
C1009       C  0.78603936  0.42919296  0.76822429    -0.21500
C1010       C  0.78087273  0.43599918  0.73871079    -0.09500
C1011       C  0.77638974  0.40146400  0.71914695     0.29400
C1012       C  0.77944510  0.36232908  0.72887646    -0.21500
C1013       C  0.78426458  0.35538750  0.75840853    -0.09500
C1014       C  0.78683232  0.38898074  0.77805511     0.29400
F1015       F  0.79304323  0.38451369  0.80641446    -0.20000
H1016       H  0.79022020  0.45571884  0.78384094     0.17700
H1017       H  0.77949771  0.33818195  0.71299080     0.17700
F1018       F  0.77212299  0.40696577  0.69066888    -0.20000
C1019       C  0.65537995  0.63317124  0.76038783    -0.21500
C1020       C  0.68777709  0.64441756  0.73803968    -0.09500
C1021       C  0.69572921  0.68102935  0.71914232     0.29400
C1022       C  0.67245005  0.70668599  0.72292979    -0.21500
C1023       C  0.64091097  0.69659763  0.74578642    -0.09500
C1024       C  0.63168999  0.65861845  0.76413690     0.29400
F1025       F  0.60186987  0.64767530  0.78658525    -0.20000
H1026       H  0.64982356  0.60581160  0.77562730     0.17700
H1027       H  0.68028928  0.73553702  0.70835552     0.17700
F1028       F  0.72855015  0.69427585  0.69828112    -0.20000
C1029       C  0.81738962  0.38674528  0.50278430    -0.21500
C1030       C  0.77971284  0.34981969  0.51798820    -0.09500
C1031       C  0.73939519  0.35347492  0.52269350     0.29400
C1032       C  0.73246769  0.39193905  0.01184413    -0.21500
C1033       C  0.76681267  0.42636535  0.99363094    -0.09500
C1034       C  0.81471221  0.42523308  0.49208228     0.29400
F1035       F  0.85266496  0.46026851  0.47843237    -0.20000
H1036       H  0.84925076  0.38579144  0.49858395     0.17700
H1037       H  0.70471302  0.39664087  0.01965156     0.17700
F1038       F  0.70311816  0.32023451  0.53831542    -0.20000
C1039       C  0.64901450  0.63525249  0.99453869    -0.21500
C1040       C  0.69077261  0.64969559  0.01022311    -0.09500
C1041       C  0.68469339  0.66067905  0.53222498     0.29400
C1042       C  0.65872486  0.68385824  0.53584138    -0.21500
C1043       C  0.63698065  0.69158098  0.51221799    -0.09500
C1044       C  0.62143550  0.65641843  0.99948183     0.29400
F1045       F  0.58365736  0.64471696  0.98230179    -0.20000
H1046       H  0.63896341  0.60937251  0.97742235     0.17700
H1047       H  0.65846128  0.69870292  0.55660214     0.17700
F1048       F  0.70712766  0.65554289  0.55525917    -0.20000
C1049       C  0.74831479  0.58572575  0.86273983    -0.21500
C1050       C  0.79036128  0.61482995  0.84829663    -0.09500
C1051       C  0.83040902  0.64713571  0.86422391     0.29400
C1052       C  0.82876668  0.64737760  0.89441743    -0.21500
C1053       C  0.78724619  0.61538277  0.90874916    -0.09500
C1054       C  0.74656751  0.58606524  0.89248141     0.29400
F1055       F  0.70520932  0.55601815  0.90544487    -0.20000
H1056       H  0.71699124  0.56093260  0.85092334     0.17700
H1057       H  0.86046855  0.67023855  0.90651818     0.17700
F1058       F  0.87184166  0.67542037  0.85084271    -0.20000
C1059       C  0.85856749  0.63393768  0.64538129    -0.21500
C1060       C  0.82830099  0.64600872  0.65933563    -0.09500
C1061       C  0.80477700  0.66433695  0.64313473     0.29400
C1062       C  0.80728392  0.66501929  0.61304767    -0.21500
C1063       C  0.83374298  0.64802586  0.59908610    -0.09500
C1064       C  0.86150811  0.63514127  0.61553227     0.29400
F1065       F  0.88700412  0.61807853  0.60256185    -0.20000
H1066       H  0.87651978  0.61924948  0.65745650     0.17700
H1067       H  0.78494119  0.67416298  0.60072331     0.17700
F1068       F  0.77478680  0.67571593  0.65603532    -0.20000
C1069       C  0.37901792  0.72968472  0.74945309    -0.21500
C1070       C  0.41847152  0.77249238  0.75855089    -0.09500
C1071       C  0.41691943  0.81465585  0.75505067     0.29400
C1072       C  0.37753981  0.81384209  0.74325016    -0.21500
C1073       C  0.33745722  0.77108339  0.73484617    -0.09500
C1074       C  0.33965346  0.72914636  0.73664477     0.29400
F1075       F  0.30421272  0.68803757  0.72581669    -0.20000
H1076       H  0.37925034  0.69693680  0.75162163     0.17700
H1077       H  0.37784801  0.84720744  0.74189071     0.17700
F1078       F  0.45385831  0.85734946  0.76295432    -0.20000
C1079       C  0.24705915  0.59792545  0.75625478    -0.21500
C1080       C  0.21128924  0.56456667  0.73789320    -0.09500
C1081       C  0.17072681  0.56814153  0.73447451     0.29400
C1082       C  0.16734487  0.60510231  0.74751517    -0.21500
C1083       C  0.20404741  0.63969663  0.76488374    -0.09500
C1084       C  0.24347096  0.63468792  0.76976000     0.29400
F1085       F  0.27904559  0.66573698  0.78704863    -0.20000
H1086       H  0.27740305  0.59510064  0.76136930     0.17700
H1087       H  0.13583226  0.60696874  0.74338632     0.17700
F1088       F  0.13357608  0.53492093  0.71904300    -0.20000
C1089       C  0.95781801  0.63256321  0.73633367    -0.21500
C1090       C  0.94082717  0.63590606  0.76333630    -0.09500
C1091       C  0.97265867  0.66069582  0.78552268     0.29400
C1092       C  0.02096714  0.68497615  0.78001689    -0.21500
C1093       C  0.03805005  0.68414096  0.75246610    -0.09500
C1094       C  0.00617081  0.65591535  0.73097601     0.29400
F1095       F  0.02138692  0.65412336  0.70423924    -0.20000
H1096       H  0.93341652  0.61377086  0.71895514     0.17700
H1097       H  0.04505160  0.70608526  0.79701159     0.17700
F1098       F  0.95697288  0.66473602  0.81168174    -0.20000
C1099       C  0.40757526  0.79764545  0.52432322    -0.21500
C1100       C  0.43401714  0.78952004  0.50420662    -0.09500
C1101       C  0.41927807  0.78565363  0.97555738     0.29400
C1102       C  0.37794952  0.78449172  0.96649240    -0.21500
C1103       C  0.35085294  0.79257729  0.98616049    -0.09500
C1104       C  0.36739291  0.79906530  0.51563716     0.29400
F1105       F  0.34440744  0.80993054  0.53570045    -0.20000
H1106       H  0.41914032  0.80499045  0.54646988     0.17700
H1107       H  0.36825660  0.77930918  0.94399942     0.17700
F1108       F  0.44683037  0.78217224  0.95524040    -0.20000
C1109       C  0.26613726  0.61344709  0.99008279    -0.21500
C1110       C  0.22402242  0.56961952  0.99087091    -0.09500
C1111       C  0.18217849  0.56775374  0.49529031     0.29400
C1112       C  0.18336617  0.60810312  0.50649143    -0.21500
C1113       C  0.22573719  0.65139682  0.50925039    -0.09500
C1114       C  0.26806398  0.65522690  0.00034728     0.29400
F1115       F  0.30919592  0.69645334  0.99848937    -0.20000
H1116       H  0.29774485  0.61534873  0.98176964     0.17700
H1117       H  0.15033898  0.60569051  0.51238996     0.17700
F1118       F  0.13965641  0.52736787  0.49333715    -0.20000
C1119       C  0.98199666  0.65104039  0.52865014    -0.21500
C1120       C  0.95110389  0.64252473  0.50560181    -0.09500
C1121       C  0.96931961  0.65541763  0.97428736     0.29400
C1122       C  0.01809783  0.67760541  0.96980434    -0.21500
C1123       C  0.04889251  0.68634497  0.99289226    -0.09500
C1124       C  0.03080998  0.67422600  0.52422182     0.29400
F1125       F  0.05988190  0.68480472  0.54724931    -0.20000
H1126       H  0.96861200  0.64240102  0.55030596     0.17700
H1127       H  0.03197926  0.69093380  0.94868645     0.17700
F1128       F  0.94086488  0.64982229  0.95163014    -0.20000
C1129       C  0.14019544  0.77637774  0.88989599    -0.21500
C1130       C  0.17425315  0.81596845  0.90519860    -0.09500
C1131       C  0.20743460  0.85610052  0.89013921     0.29400
C1132       C  0.20823330  0.85524939  0.86013769    -0.21500
C1133       C  0.17676281  0.81397269  0.84504776    -0.09500
C1134       C  0.14180876  0.77502391  0.86001036     0.29400
F1135       F  0.11218967  0.73416027  0.84592458    -0.20000
H1136       H  0.11537228  0.74461758  0.90122865     0.17700
H1137       H  0.23616594  0.88507299  0.84886682     0.17700
F1138       F  0.24193601  0.89399767  0.90439706    -0.20000
C1139       C  0.19229870  0.84283033  0.61209394    -0.21500
C1140       C  0.18177605  0.80286819  0.59512572    -0.09500
C1141       C  0.16164768  0.75809414  0.60794565     0.30600
C1142       C  0.15543154  0.75368334  0.63741420    -0.21500
C1143       C  0.16995435  0.79381627  0.65490109    -0.09500
C1144       C  0.18654525  0.83840830  0.64204787     0.29400
F1145       F  0.20110061  0.87786705  0.65844772    -0.20000
H1146       H  0.20819275  0.87769552  0.60248608     0.17700
H1147       H  0.14210007  0.71892497  0.64687307     0.17700
F1148       F  0.15074466  0.71882940  0.59209319    -0.20000
C1149       C  0.60638730  0.34497369  0.73367161    -0.21500
C1150       C  0.56534884  0.34564027  0.72589638    -0.09500
C1151       C  0.56492563  0.38837200  0.72964841     0.29400
C1152       C  0.60277784  0.42767227  0.74260089    -0.21500
C1153       C  0.64307180  0.42657975  0.75188777    -0.09500
C1154       C  0.64447138  0.38449376  0.74713868     0.29400
F1155       F  0.68247439  0.38140705  0.75521010    -0.20000
H1156       H  0.60809590  0.31312698  0.73029690     0.17700
H1157       H  0.60069042  0.45967181  0.74497272     0.17700
F1158       F  0.52688279  0.39175680  0.72166615    -0.20000
C1159       C  0.56965880  0.18731897  0.73911004    -0.21500
C1160       C  0.57047449  0.22086393  0.75880590    -0.09500
C1161       C  0.61449478  0.25811052  0.76776992     0.29400
C1162       C  0.65616990  0.26201212  0.75674549    -0.21500
C1163       C  0.65500466  0.22811659  0.73730328    -0.09500
C1164       C  0.61109566  0.19052504  0.72883453     0.29400
F1165       F  0.60831185  0.15568179  0.71146207    -0.20000
H1166       H  0.53660838  0.15812919  0.73138417     0.17700
H1167       H  0.68939104  0.29012154  0.76482581     0.17700
F1168       F  0.61732185  0.29064463  0.78710892    -0.20000
C1169       C  0.34490691  0.01435371  0.72695662    -0.21500
C1170       C  0.35263086  0.04387230  0.75075250    -0.09500
C1171       C  0.33646804  0.02298919  0.77786828     0.29400
C1172       C  0.31205502  0.97354463  0.78083205    -0.21500
C1173       C  0.30211045  0.94416185  0.75674236    -0.09500
C1174       C  0.31915007  0.96494191  0.72979036     0.29400
F1175       F  0.30965227  0.93734908  0.70604467    -0.20000
H1176       H  0.35655641  0.02951282  0.70586802     0.17700
H1177       H  0.29858177  0.95819644  0.80166542     0.17700
F1178       F  0.34323466  0.05035805  0.80140181    -0.20000
C1179       C  0.33711875  0.36654299  0.76378179    -0.21500
C1180       C  0.31744720  0.36573417  0.73678630    -0.09500
C1181       C  0.32336795  0.34074994  0.71417930     0.29400
C1182       C  0.34548180  0.31409056  0.71925498    -0.21500
C1183       C  0.36255116  0.31255865  0.74679081    -0.09500
C1184       C  0.35978216  0.34053655  0.76876178     0.29400
F1185       F  0.37494865  0.33926553  0.79568239    -0.20000
H1186       H  0.33218471  0.38500026  0.78160037     0.17700
H1187       H  0.34753182  0.29298364  0.70193152     0.17700
F1188       F  0.30393133  0.33843151  0.68805478    -0.20000
C1189       C  0.35688622  0.16577101  0.89158147    -0.21500
C1190       C  0.38482315  0.20789731  0.90724316    -0.09500
C1191       C  0.40888319  0.25090520  0.89228876     0.29400
C1192       C  0.40827254  0.25128113  0.86234778    -0.21500
C1193       C  0.38367459  0.20892492  0.84651272    -0.09500
C1194       C  0.35629646  0.16618665  0.86133921     0.29400
F1195       F  0.33262530  0.12456809  0.84673780    -0.20000
H1196       H  0.33851335  0.13213500  0.90264377     0.17700
H1197       H  0.42924522  0.28470134  0.85138819     0.17700
F1198       F  0.43517620  0.29241860  0.90665791    -0.20000
C1199       C  0.33618203  0.17729049  0.64153710    -0.21500
C1200       C  0.36150141  0.15932235  0.65601197    -0.09500
C1201       C  0.38146457  0.13717851  0.64007514     0.29400
C1202       C  0.38157457  0.13861055  0.61023976    -0.21500
C1203       C  0.36165097  0.16192819  0.59565845    -0.09500
C1204       C  0.33596194  0.17833333  0.61133070     0.29400
F1205       F  0.31583222  0.20055631  0.59773406    -0.20000
H1206       H  0.32071143  0.19461622  0.65344896     0.17700
H1207       H  0.40136925  0.12559055  0.59858964     0.17700
F1208       F  0.40559826  0.11885663  0.65347263    -0.20000
C1209       C  0.59670732  0.39444644  0.98646395    -0.21500
C1210       C  0.57743841  0.35467493  0.00408393    -0.09500
C1211       C  0.59590410  0.35775419  0.53124860     0.29400
C1212       C  0.63496037  0.40026500  0.54034719    -0.21500
C1213       C  0.65499902  0.43923023  0.52221568    -0.09500
C1214       C  0.63378521  0.43781359  0.99643521     0.29400
F1215       F  0.64992985  0.47574857  0.97874498    -0.20000
H1216       H  0.58146980  0.39261351  0.96552806     0.17700
H1217       H  0.64845954  0.40323400  0.56193772     0.17700
F1218       F  0.57538134  0.32315163  0.55098276    -0.20000
C1219       C  0.61692061  0.17784114  0.00407380    -0.21500
C1220       C  0.65101020  0.21771060  0.98871439    -0.09500
C1221       C  0.64602732  0.25808622  0.98791090     0.29400
C1222       C  0.60799212  0.25814849  0.50460213    -0.21500
C1223       C  0.57366927  0.21758101  0.51920185    -0.09500
C1224       C  0.57951009  0.17784917  0.52006022     0.29400
F1225       F  0.54691456  0.13742006  0.53305978    -0.20000
H1226       H  0.61933370  0.14596007  0.00569719     0.17700
H1227       H  0.60416062  0.28877263  0.50251676     0.17700
F1228       F  0.67671665  0.29682996  0.97280426    -0.20000
C1229       C  0.33251489  0.02375166  0.96799083    -0.21500
C1230       C  0.36378888  0.05366044  0.98905620    -0.09500
C1231       C  0.36179325  0.03183618  0.52078532     0.29400
C1232       C  0.33511097  0.98293561  0.52552352    -0.21500
C1233       C  0.31141192  0.95195433  0.50270423    -0.09500
C1234       C  0.30368565  0.97517010  0.97324204     0.29400
F1235       F  0.27230837  0.94799784  0.95268882    -0.20000
H1236       H  0.32798146  0.03853168  0.94825438     0.17700
H1237       H  0.33031047  0.96967897  0.54725024     0.17700
F1238       F  0.38042630  0.06141715  0.54370450    -0.20000
C1239       C  0.36171467  0.32386272  0.48441443    -0.21500
C1240       C  0.36670500  0.31091786  0.51246438    -0.09500
C1241       C  0.33630743  0.31229360  0.03870118     0.29400
C1242       C  0.30919208  0.33347825  0.03250723    -0.21500
C1243       C  0.31460047  0.35752123  0.00643485    -0.09500
C1244       C  0.33627955  0.34692020  0.47899480     0.29400
F1245       F  0.32938708  0.35553291  0.45146230    -0.20000
H1246       H  0.37539278  0.31359662  0.46635927     0.17700
H1247       H  0.28269566  0.32964718  0.04772022     0.17700
F1248       F  0.32780995  0.28654959  0.06303349    -0.20000
loop_ 
_geom_bond_atom_site_label_1 
_geom_bond_atom_site_label_2 
_geom_bond_distance 
_geom_bond_site_symmetry_2 
_ccdc_geom_bond_type 
Fe1           O7   2.127       .  S
Fe1         O641   2.021       .  S
Fe1         O638   2.127       .  S
Fe1         O630   2.017       .  S
Fe1         O636   1.919       .  S
Fe2           O9   2.135       .  S
Fe2          O13   2.037       .  S
Fe2          O18   2.162       .  S
Fe2         O629   2.005       .  S
Fe2          O12   1.917       .  S
Fe3          O21   2.177       .  S
Fe3          O15   2.036       .  S
Fe3           O4   2.133       .  S
Fe3         O632   2.018       .  S
Fe3         O636   1.917       .  S
O4           C11   1.284       .  A
O5         Fe626   2.010       .  S
O5           C19   1.255       .  A
O6         Fe625   2.022       .  S
O6          C635   1.264   1_554  A
O7           C10   1.281       .  A
O8         Fe627   2.020   1_554  S
O8           C20   1.253       .  A
O9           C22   1.285       .  A
C10          O15   1.268       .  A
C10         C566   1.481       .  S
C11         O630   1.263       .  A
C11         C606   1.474       .  S
O12        Fe625   1.916       .  S
O12        Fe627   1.915   1_554  S
O13          C16   1.268       .  A
O14        Fe625   2.128       .  S
O14          C16   1.280       .  A
C16         C579   1.477       .  S
O17        Fe625   2.027   1_556  S
O17          C22   1.265   1_556  A
O18          C20   1.281       .  A
C19          O21   1.291       .  A
C19         C586   1.488       .  S
C20         C599   1.490       .  S
C22         C616   1.475       .  S
Fe23         O39   2.042       .  S
Fe23         O29   2.133       .  S
Fe23         O36   2.129       .  S
Fe23         O28   2.050       .  S
Fe23         O34   1.913       .  S
Fe24         O27   2.018       .  S
Fe24         O31   2.124       .  S
Fe24         O35   2.030       .  S
Fe24         O40   2.179       .  S
Fe24         O34   1.921       .  S
Fe25         O43   2.165       .  S
Fe25         O30   2.015       .  S
Fe25         O37   2.030       .  S
Fe25         O26   2.101       .  S
Fe25         O34   1.922       .  S
O26          C33   1.275       .  A
O27          C41   1.255       .  A
O28          C33   1.265       .  A
O29          C32   1.286       .  A
O30          C42   1.251       .  A
O31          C44   1.282       .  A
C32          O37   1.272       .  A
C32         C569   1.480       .  S
C33         C559   1.479       .  S
O35          C38   1.269       .  A
O36          C38   1.283       .  A
C38         C576   1.474       .  S
O39          C44   1.266       .  A
O40          C42   1.286       .  A
C41          O43   1.283       .  A
C41         C536   1.495       .  S
C42         C526   1.496       .  S
C44         C546   1.484       .  S
Fe45         O61   2.044   1_554  S
Fe45         O58   2.117       .  S
Fe45         O50   2.038       .  S
Fe45        O675   2.118   1_554  S
Fe45         O56   1.916   1_554  S
Fe46         O53   2.117       .  S
Fe46         O57   2.039       .  S
Fe46         O62   2.187       .  S
Fe46        O673   2.008   1_554  S
Fe46         O56   1.915   1_554  S
Fe47         O65   2.180       .  S
Fe47         O59   2.032       .  S
Fe47         O48   2.139       .  S
Fe47        O676   2.014       .  S
Fe47        O680   1.917       .  S
O48          C55   1.286       .  A
O49        Fe670   2.007       .  S
O49          C63   1.246       .  A
O50         C679   1.267   1_554  A
O51        Fe669   2.118       .  S
O51          C54   1.280       .  A
O52        Fe671   2.015   1_554  S
O52          C64   1.260       .  A
O53          C66   1.280       .  A
C54          O59   1.267       .  A
C54         C506   1.467       .  S
C55         O674   1.267       .  A
C55         C499   1.484       .  S
O56        Fe671   1.929       .  S
O57          C60   1.272       .  A
O58          C60   1.281       .  A
C60         C516   1.475       .  S
O61          C66   1.267   1_556  A
O62          C64   1.289       .  A
C63          O65   1.287       .  A
C63         C479   1.485       .  S
C64         C489   1.495       .  S
C66         C609   1.491   1_554  S
Fe67         O83   2.041       .  S
Fe67         O73   2.127       .  S
Fe67         O80   2.119       .  S
Fe67         O72   2.036       .  S
Fe67         O78   1.909       .  S
Fe68         O71   2.012       .  S
Fe68         O75   2.125       .  S
Fe68         O79   2.042       .  S
Fe68         O84   2.181       .  S
Fe68         O78   1.918       .  S
Fe69         O87   2.183       .  S
Fe69         O74   2.012       .  S
Fe69         O81   2.031       .  S
Fe69         O70   2.124       .  S
Fe69         O78   1.918       .  S
O70          C77   1.282       .  A
O71          C85   1.254       .  A
O72          C77   1.265       .  A
O73          C76   1.282       .  A
O74          C86   1.249       .  A
O75          C88   1.280       .  A
C76          O81   1.268       .  A
C76         C519   1.473       .  S
C77         C469   1.482       .  S
O79          C82   1.272       .  A
O80          C82   1.282       .  A
C82         C509   1.469       .  S
O83          C88   1.266       .  A
O84          C86   1.285       .  A
C85          O87   1.288       .  A
C85         C449   1.498       .  S
C86         C459   1.503       .  S
C88         C549   1.481       .  S
Fe89        O105   2.050   1_554  S
Fe89        O102   2.124       .  S
Fe89         O94   2.054       .  S
Fe89        O719   2.130   1_554  S
Fe89        O100   1.919       .  S
Fe90         O97   2.126       .  S
Fe90        O101   2.035       .  S
Fe90        O106   2.166       .  S
Fe90        O717   2.024       .  S
Fe90        O100   1.937       .  S
Fe91        O109   2.166       .  S
Fe91        O103   2.023       .  S
Fe91         O92   2.106       .  S
Fe91        O720   2.007       .  S
Fe91        O724   1.915       .  S
O92          C99   1.277       .  A
O93        Fe714   2.017       .  S
O93         C107   1.258       .  A
O94         C723   1.267       .  A
O95        Fe713   2.139       .  S
O95          C98   1.286       .  A
O96        Fe715   2.007   1_554  S
O96         C108   1.244       .  A
O97         C110   1.283       .  A
C98         O103   1.269       .  A
C98         C429   1.484       .  S
C99         O718   1.267       .  A
C99         C416   1.483       .  S
O100       Fe715   1.918   1_554  S
O101        C104   1.269       .  A
O102        C104   1.282       .  A
C104        C439   1.472       .  S
O105        C110   1.268   1_556  A
O106        C108   1.281       .  A
C107        O109   1.284       .  A
C107        C409   1.483       .  S
C108        C589   1.487       .  S
C110        C496   1.492       .  S
Fe111       O127   2.036       .  S
Fe111       O117   2.137       .  S
Fe111       O124   2.129       .  S
Fe111       O116   2.034       .  S
Fe111       O122   1.911       .  S
Fe112       O115   2.016       .  S
Fe112       O119   2.140       .  S
Fe112       O123   2.036       .  S
Fe112       O128   2.180       .  S
Fe112       O122   1.920       .  S
Fe113       O131   2.184       .  S
Fe113       O118   2.007       .  S
Fe113       O125   2.033       .  S
Fe113       O114   2.120       .  S
Fe113       O122   1.911       .  S
O114        C121   1.280       .  A
O115        C129   1.258       .  A
O116        C121   1.264       .  A
O117        C120   1.285       .  A
O118        C130   1.244       .  A
O119        C132   1.286       .  A
C120        O125   1.271       .  A
C120        C426   1.484       .  S
C121        C466   1.479       .  S
O123        C126   1.267       .  A
O124        C126   1.282       .  A
C126        C436   1.474       .  S
O127        C132   1.267       .  A
O128        C130   1.285       .  A
C129        O131   1.288       .  A
C129        C529   1.498       .  S
C130        C386   1.484       .  S
C132        C396   1.478       .  S
Fe133       O149   2.030       .  S
Fe133       O146   2.126   1_556  S
Fe133       O138   2.029       .  S
Fe133       O763   2.131       .  S
Fe133       O144   1.918       .  S
Fe134       O141   2.141       .  S
Fe134       O145   2.038       .  S
Fe134       O150   2.166       .  S
Fe134       O761   2.017       .  S
Fe134       O144   1.919   1_554  S
Fe135       O153   2.176       .  S
Fe135       O147   2.032       .  S
Fe135       O136   2.129       .  S
Fe135       O764   2.003       .  S
Fe135       O768   1.909       .  S
O136        C143   1.283       .  A
O137       Fe758   2.014       .  S
O137        C151   1.254       .  A
O138        C767   1.265       .  A
O139       Fe757   2.130       .  S
O139        C142   1.281       .  A
O140       Fe759   2.003       .  S
O140        C152   1.248   1_556  A
O141        C154   1.287       .  A
C142        O147   1.267       .  A
C142        C366   1.476       .  S
C143        O762   1.266       .  A
C143        C356   1.473       .  S
O144       Fe759   1.909       .  S
O145        C148   1.266       .  A
O146        C148   1.280       .  A
C148        C379   1.474       .  S
O149        C154   1.267   1_556  A
O150        C152   1.285       .  A
C151        O153   1.286       .  A
C151        C346   1.488       .  S
C152        C476   1.484       .  S
C154        C419   1.476       .  S
Fe155       O171   2.054       .  S
Fe155       O161   2.122       .  S
Fe155       O168   2.120       .  S
Fe155       O160   2.048       .  S
Fe155       O166   1.912       .  S
Fe156       O159   2.011       .  S
Fe156       O163   2.107       .  S
Fe156       O167   2.038       .  S
Fe156       O172   2.175       .  S
Fe156       O166   1.922       .  S
Fe157       O175   2.177       .  S
Fe157       O162   2.013       .  S
Fe157       O169   2.038       .  S
Fe157       O158   2.124       .  S
Fe157       O166   1.930       .  S
O158        C165   1.281       .  A
O159        C173   1.248       .  A
O160        C165   1.267       .  A
O161        C164   1.282       .  A
O162        C174   1.255       .  A
O163        C176   1.278       .  A
C164        O169   1.271       .  A
C164        C376   1.473       .  S
C165        C339   1.486       .  S
O167        C170   1.272       .  A
O168        C170   1.282       .  A
C170        C369   1.476       .  S
O171        C176   1.269       .  A
O172        C174   1.286       .  A
C173        O175   1.285       .  A
C173        C329   1.494       .  S
C174        C446   1.490       .  S
C176        C399   1.493       .  S
Fe177       O193   2.050       .  S
Fe177       O183   2.122       .  S
Fe177       O182   2.051       .  S
Fe177       O814   2.128       .  S
Fe177       O812   1.903       .  S
Fe178       O185   2.113       .  S
Fe178       O189   2.036       .  S
Fe178       O194   2.190       .  S
Fe178       O805   2.013   1_554  S
Fe178       O188   1.921   1_554  S
Fe179       O197   2.189       .  S
Fe179       O191   2.038       .  S
Fe179       O180   2.119       .  S
Fe179       O808   2.015       .  S
Fe179       O812   1.925       .  S
O180        C187   1.279       .  A
O181       Fe802   2.011       .  S
O181        C195   1.246       .  A
O182        C187   1.267       .  A
O183        C186   1.284       .  A
O184       Fe803   2.016   1_554  S
O184        C196   1.254       .  A
O185        C198   1.279       .  A
C186        O191   1.273       .  A
C186        C309   1.472       .  S
C187        C299   1.485       .  S
O188       Fe801   1.908       .  S
O188       Fe803   1.929       .  S
O189        C192   1.271       .  A
O190       Fe801   2.114   1_554  S
O190        C192   1.281       .  A
C192        C316   1.466       .  S
O193        C822   1.266       .  A
O194        C196   1.289       .  A
C195        O197   1.285       .  A
C195        C596   1.501       .  S
C196        C406   1.503       .  S
C198        O817   1.264   1_554  A
C198        C359   1.488   1_554  S
Fe199       O215   2.041       .  S
Fe199       O205   2.115       .  S
Fe199       O212   2.125       .  S
Fe199       O204   2.044       .  S
Fe199       O210   1.919       .  S
Fe200       O203   2.015       .  S
Fe200       O207   2.127       .  S
Fe200       O211   2.032       .  S
Fe200       O216   2.154       .  S
Fe200       O210   1.928       .  S
Fe201       O219   2.165       .  S
Fe201       O206   2.012       .  S
Fe201       O213   2.033       .  S
Fe201       O202   2.122       .  S
Fe201       O210   1.925       .  S
O202        C209   1.282       .  A
O203        C217   1.258       .  A
O204        C209   1.267       .  A
O205        C208   1.280       .  A
O206        C218   1.251       .  A
O207        C220   1.281       .  A
C208        O213   1.268       .  A
C208        C319   1.470       .  S
C209        C289   1.487       .  S
O211        C214   1.268       .  A
O212        C214   1.281       .  A
C214        C306   1.472       .  S
O215        C220   1.265       .  A
O216        C218   1.281       .  A
C217        O219   1.286       .  A
C217        C539   1.478       .  S
C218        C389   1.484       .  S
C220        C336   1.482       .  S
Fe221       O227   2.129       .  S
Fe221       O861   2.061       .  S
Fe221       O858   2.119       .  S
Fe221       O850   2.052       .  S
Fe221       O856   1.910       .  S
Fe222       O229   2.109       .  S
Fe222       O233   2.032       .  S
Fe222       O238   2.171       .  S
Fe222       O849   2.010   1_554  S
Fe222       O232   1.932       .  S
Fe223       O241   2.183       .  S
Fe223       O235   2.033       .  S
Fe223       O224   2.110       .  S
Fe223       O852   2.012       .  S
Fe223       O856   1.915       .  S
O224        C231   1.279       .  A
O225       Fe846   2.009       .  S
O225        C239   1.254       .  A
O226       Fe845   2.054   1_554  S
O226        C855   1.268   1_554  A
O227        C230   1.283       .  A
O228       Fe847   2.013   1_554  S
O228        C240   1.243       .  A
O229        C242   1.277       .  A
C230        O235   1.270       .  A
C230        C266   1.475       .  S
C231        O850   1.267       .  A
C231        C619   1.481       .  S
O232       Fe845   1.911   1_554  S
O232       Fe847   1.917   1_554  S
O233        C236   1.272       .  A
O234       Fe845   2.119   1_554  S
O234        C236   1.282       .  A
C236        C276   1.464       .  S
O237       Fe845   2.059       .  S
O237        C242   1.270   1_556  A
O238        C240   1.278       .  A
C239        O241   1.289       .  A
C239        C486   1.498       .  S
C240        C349   1.499       .  S
C242        C296   1.487       .  S
Fe243       O259   2.038       .  S
Fe243       O249   2.111       .  S
Fe243       O256   2.119       .  S
Fe243       O248   2.028       .  S
Fe243       O254   1.921       .  S
Fe244       O247   2.017       .  S
Fe244       O251   2.129       .  S
Fe244       O255   2.040       .  S
Fe244       O260   2.170       .  S
Fe244       O254   1.914       .  S
Fe245       O263   2.164       .  S
Fe245       O250   2.018       .  S
Fe245       O257   2.042       .  S
Fe245       O246   2.130       .  S
Fe245       O254   1.923       .  S
O246        C253   1.284       .  A
O247        C261   1.252       .  A
O248        C253   1.267       .  A
O249        C252   1.277       .  A
O250        C262   1.257       .  A
O251        C264   1.284       .  A
C252        O257   1.269       .  A
C252        C279   1.467       .  S
C253        C556   1.474       .  S
O255        C258   1.268       .  A
O256        C258   1.279       .  A
C258        C269   1.476       .  S
O259        C264   1.267       .  A
O260        C262   1.290       .  A
C261        O263   1.283       .  A
C261        C456   1.490       .  S
C262        C326   1.487       .  S
C264        C286   1.480       .  S
C265        C266   1.400       .  A
C265        C270   1.392       .  A
C265        H272   1.084       .  S
C266        C267   1.410       .  A
C267        C268   1.411       .  A
C267        F274   1.357       .  S
C268        C269   1.406       .  A
C268        H273   1.083       .  S
C269        C270   1.404       .  A
C270        F271   1.358       .  S
C275        C276   1.402       .  A
C275        C280   1.395       .  A
C275        H282   1.084       .  S
C276        C277   1.403       .  A
C277        C278   1.401       .  A
C277        F284   1.357       .  S
C278        C279   1.405       .  A
C278        H283   1.084       .  S
C279        C280   1.402       .  A
C280        F281   1.357       .  S
C285        C286   1.399       .  A
C285        C290   1.403   1_455  A
C285        H292   1.083       .  S
C286        C287   1.410       .  A
C287        C288   1.403   1_455  A
C287        F294   1.357       .  S
C288        C289   1.402       .  A
C288        H293   1.083       .  S
C289        C290   1.414       .  A
C290        F291   1.358       .  S
C295        C296   1.408   1_556  A
C295        C924   1.401   1_455  A
C295        H302   1.083       .  S
C296        C297   1.409       .  A
C297        C922   1.403   1_455  A
C297        F304   1.358       .  S
C298        C299   1.408       .  A
C298        C921   1.402   1_655  A
C298        H303   1.084       .  S
C299        C300   1.406       .  A
C300        C919   1.405   1_655  A
C300        F301   1.357       .  S
C305        C306   1.402       .  A
C305        C310   1.395       .  A
C305        H312   1.084       .  S
C306        C307   1.407       .  A
C307        C308   1.406       .  A
C307        F314   1.357       .  S
C308        C309   1.404       .  A
C308        H313   1.083       .  S
C309        C310   1.404       .  A
C310        F311   1.358       .  S
C315        C316   1.398       .  A
C315        C320   1.393       .  A
C315        H322   1.084       .  S
C316        C317   1.407       .  A
C317        C318   1.405       .  A
C317        F324   1.358       .  S
C318        C319   1.404       .  A
C318        H323   1.083       .  S
C319        C320   1.404       .  A
C320        F321   1.358       .  S
C325        C326   1.416       .  A
C325        C330   1.404       .  A
C325        H332   1.077       .  S
C326        C327   1.398       .  A
C327        C328   1.403       .  A
C327        F334   1.357       .  S
C328        C329   1.419       .  A
C328        H333   1.083       .  S
C329        C330   1.398       .  A
C330        F331   1.357       .  S
C335        C336   1.409       .  A
C335        C340   1.402   1_545  A
C335        H342   1.084       .  S
C336        C337   1.403       .  A
C337        C338   1.403   1_545  A
C337        F344   1.357       .  S
C338        C339   1.411       .  A
C338        H343   1.083       .  S
C339        C340   1.404       .  A
C340        F341   1.357       .  S
C345        C350   1.397       .  A
C345        C970   1.396       .  A
C345        H352   1.084       .  S
C346        C347   1.414       .  A
C346        C969   1.399       .  A
C347        C348   1.409       .  A
C347        F354   1.349       .  S
C348        C973   1.401       .  A
C348        H353   1.083       .  S
C349        C350   1.422   1_554  A
C349        C972   1.402       .  A
C350        F351   1.358       .  S
C355        C356   1.400       .  A
C355        C360   1.402   1_565  A
C355        H362   1.083       .  S
C356        C981   1.409       .  A
C357        C358   1.401   1_565  A
C357        C980   1.407   1_554  A
C357        F364   1.358       .  S
C358        C359   1.403   1_554  A
C358        H363   1.083       .  S
C359        C984   1.416       .  A
C360        C983   1.413       .  A
C360        F361   1.358       .  S
C365        C366   1.409       .  A
C365        C370   1.408       .  A
C365        H372   1.083       .  S
C366        C367   1.403       .  A
C367        C368   1.393       .  A
C367        F374   1.358       .  S
C368        C369   1.402       .  A
C368        H373   1.084       .  S
C369        C370   1.406       .  A
C370        F371   1.357       .  S
C375        C376   1.403       .  A
C375        C380   1.404       .  A
C375        H382   1.083       .  S
C376        C377   1.405       .  A
C377        C378   1.398       .  A
C377        F384   1.358       .  S
C378        C379   1.403       .  A
C378        H383   1.084       .  S
C379        C380   1.407       .  A
C380        F381   1.357       .  S
C385        C386   1.418       .  A
C385        C390   1.400       .  A
C385        H392   1.081       .  S
C386        C387   1.397       .  A
C387        C388   1.405       .  A
C387        F394   1.357       .  S
C388        C389   1.417       .  A
C388        H393   1.083       .  S
C389        C390   1.394       .  A
C390        F391   1.357       .  S
C395        C396   1.405       .  A
C395        C400   1.404       .  A
C395        H402   1.083       .  S
C396        C397   1.403       .  A
C397        C398   1.401       .  A
C397        F404   1.356       .  S
C398        C399   1.410       .  A
C398        H403   1.083       .  S
C399        C400   1.410       .  A
C400        F401   1.357       .  S
C405        C406   1.417   1_556  A
C405        C410   1.397       .  A
C405        H412   1.082       .  S
C406        C407   1.406       .  A
C407       C1032   1.414       .  A
C407        F414   1.357       .  S
C408        C409   1.412       .  A
C408       C1031   1.412       .  A
C408        H413   1.060       .  S
C409       C1034   1.401       .  A
C410       C1033   1.399       .  A
C410        F411   1.358       .  S
C415        C416   1.401       .  A
C415        C420   1.400       .  A
C415        H422   1.083       .  S
C416       C1041   1.412       .  A
C417        C418   1.401       .  A
C417       C1040   1.416       .  A
C417        F424   1.358       .  S
C418        C419   1.400       .  A
C418        H423   1.084       .  S
C419       C1044   1.407   1_554  A
C420       C1043   1.411       .  A
C420        F421   1.358       .  S
C425        C426   1.402       .  A
C425        C430   1.392       .  A
C425        H432   1.084       .  S
C426        C427   1.411       .  A
C427        C428   1.411       .  A
C427        F434   1.357       .  S
C428        C429   1.406       .  A
C428        H433   1.083       .  S
C429        C430   1.408       .  A
C430        F431   1.359       .  S
C435        C436   1.402       .  A
C435        C440   1.399       .  A
C435        H442   1.084       .  S
C436        C437   1.407       .  A
C437        C438   1.404       .  A
C437        F444   1.356       .  S
C438        C439   1.403       .  A
C438        H443   1.083       .  S
C439        C440   1.405       .  A
C440        F441   1.358       .  S
C445        C446   1.410       .  A
C445        C450   1.414       .  A
C445        H452   1.075       .  S
C446        C447   1.405       .  A
C447        C448   1.393       .  A
C447        F454   1.359       .  S
C448        C449   1.412       .  A
C448        H453   1.083       .  S
C449        C450   1.407       .  A
C450        F451   1.355       .  S
C455        C456   1.414       .  A
C455        C460   1.410       .  A
C455        H462   1.074       .  S
C456        C457   1.401       .  A
C457        C458   1.401       .  A
C457        F464   1.358       .  S
C458        C459   1.417       .  A
C458        H463   1.083       .  S
C459        C460   1.404       .  A
C460        F461   1.357       .  S
C465        C466   1.410       .  A
C465        C470   1.401   1_655  A
C465        H472   1.084       .  S
C466        C467   1.401       .  A
C467        C468   1.403   1_655  A
C467        F474   1.357       .  S
C468        C469   1.412       .  A
C468        H473   1.084       .  S
C469        C470   1.401       .  A
C470        F471   1.357       .  S
C475        C476   1.392       .  A
C475        C480   1.401       .  A
C475        H482   1.083       .  S
C476       C1101   1.421   1_554  A
C477        C478   1.402       .  A
C477       C1100   1.421       .  A
C477        F484   1.355       .  S
C478        C479   1.393       .  A
C478        H483   1.083       .  S
C479       C1104   1.422       .  A
C480       C1103   1.422   1_554  A
C480        F481   1.356       .  S
C485        C486   1.404       .  A
C485        C490   1.413       .  A
C485        H492   1.080       .  S
C486       C1111   1.415       .  A
C487        C488   1.396       .  A
C487       C1110   1.418   1_554  A
C487        F494   1.358       .  S
C488        C489   1.401       .  A
C488        H493   1.084       .  S
C489       C1114   1.414       .  A
C490       C1113   1.413       .  A
C490        F491   1.349       .  S
C495        C496   1.403       .  A
C495        C500   1.403   1_655  A
C495        H502   1.083       .  S
C496       C1121   1.415   1_554  A
C497        C498   1.404   1_655  A
C497       C1120   1.413       .  A
C497        F504   1.358       .  S
C498        C499   1.401       .  A
C498        H503   1.083       .  S
C499       C1124   1.412       .  A
C500       C1123   1.410   1_554  A
C500        F501   1.358       .  S
C505        C506   1.403       .  A
C505        C510   1.397       .  A
C505        H512   1.084       .  S
C506        C507   1.404       .  A
C507        C508   1.402       .  A
C507        F514   1.357       .  S
C508        C509   1.405       .  A
C508        H513   1.084       .  S
C509        C510   1.402       .  A
C510        F511   1.357       .  S
C515        C516   1.402       .  A
C515        C520   1.395       .  A
C515        H522   1.084       .  S
C516        C517   1.406       .  A
C517        C518   1.407       .  A
C517        F524   1.357       .  S
C518        C519   1.407       .  A
C518        H523   1.083       .  S
C519        C520   1.404       .  A
C520        F521   1.358       .  S
C525        C526   1.404       .  A
C525        C530   1.411       .  A
C525        H532   1.079       .  S
C526        C527   1.413       .  A
C527        C528   1.398       .  A
C527        F534   1.358       .  S
C528        C529   1.406       .  A
C528        H533   1.084       .  S
C529        C530   1.412       .  A
C530        F531   1.350       .  S
C535        C536   1.414       .  A
C535        C540   1.397       .  A
C535        H542   1.083       .  S
C536        C537   1.405       .  A
C537        C538   1.409       .  A
C537        F544   1.357       .  S
C538        C539   1.412       .  A
C538        H543   1.079       .  S
C539        C540   1.399       .  A
C540        F541   1.358       .  S
C545        C546   1.401       .  A
C545        C550   1.400   1_545  A
C545        H552   1.083       .  S
C546        C547   1.413       .  A
C547        C548   1.405   1_545  A
C547        F554   1.358       .  S
C548        C549   1.402       .  A
C548        H553   1.083       .  S
C549        C550   1.409       .  A
C550        F551   1.357       .  S
C555        C556   1.406       .  A
C555        C560   1.397       .  A
C555        H562   1.084       .  S
C556        C557   1.403       .  A
C557        C558   1.403       .  A
C557        F564   1.358       .  S
C558        C559   1.410       .  A
C558        H563   1.084       .  S
C559        C560   1.402       .  A
C560        F561   1.357       .  S
C565        C566   1.409       .  A
C565        C570   1.411       .  A
C565        H572   1.083       .  S
C566        C567   1.404       .  A
C567        C568   1.392       .  A
C567        F574   1.358       .  S
C568        C569   1.403       .  A
C568        H573   1.084       .  S
C569        C570   1.408       .  A
C570        F571   1.357       .  S
C575        C576   1.404       .  A
C575        C580   1.408       .  A
C575        H582   1.083       .  S
C576        C577   1.406       .  A
C577        C578   1.394       .  A
C577        F584   1.358       .  S
C578        C579   1.402       .  A
C578        H583   1.084       .  S
C579        C580   1.409       .  A
C580        F581   1.357       .  S
C585        C586   1.394       .  A
C585        C590   1.402       .  A
C585        H592   1.083       .  S
C586       C1211   1.423       .  A
C587        C588   1.399       .  A
C587       C1210   1.422       .  A
C587        F594   1.351       .  S
C588        C589   1.391       .  A
C588        H593   1.083       .  S
C589       C1214   1.422   1_554  A
C590       C1213   1.422       .  A
C590        F591   1.357       .  S
C595        C596   1.418       .  A
C595       C1224   1.399       .  A
C595        H602   1.083       .  S
C596        C597   1.402       .  A
C597       C1222   1.410       .  A
C597        F604   1.356       .  S
C598        C599   1.414       .  A
C598       C1221   1.411   1_554  A
C598        H603   1.076       .  S
C599        C600   1.400       .  A
C600       C1219   1.398       .  A
C600        F601   1.358       .  S
C605        C606   1.399       .  A
C605        C610   1.402   1_545  A
C605        H612   1.083       .  S
C606       C1231   1.411       .  A
C607        C608   1.403   1_545  A
C607       C1230   1.409   1_554  A
C607        F614   1.358       .  S
C608        C609   1.403   1_554  A
C608        H613   1.083       .  S
C609       C1234   1.415       .  A
C610       C1233   1.413       .  A
C610        F611   1.357       .  S
C615        C616   1.407   1_556  A
C615        C620   1.402       .  A
C615        H622   1.084       .  S
C616       C1241   1.401       .  A
C617        C618   1.406       .  A
C617       C1240   1.404       .  A
C617        F624   1.357       .  S
C618        C619   1.411       .  A
C618        H623   1.083       .  S
C619       C1244   1.400       .  A
C620       C1243   1.405   1_556  A
C620        F621   1.357       .  S
Fe625       O631   2.127   1_554  S
Fe626       O633   2.139       .  S
Fe626       O637   2.033       .  S
Fe626       O642   2.164       .  S
Fe626       O636   1.918       .  S
Fe627       O645   2.175       .  S
Fe627       O639   2.048       .  S
Fe627       O628   2.136       .  S
O628        C635   1.286       .  A
O629        C643   1.254   1_554  A
O631        C634   1.280       .  A
O632        C644   1.252       .  A
O633        C646   1.285       .  A
C634        O639   1.269       .  A
C634       C1190   1.485       .  S
C635       C1230   1.474       .  S
O637        C640   1.267       .  A
O638        C640   1.280       .  A
C640       C1203   1.477       .  S
O641        C646   1.265       .  A
O642        C644   1.281       .  A
C643        O645   1.291       .  A
C643       C1210   1.484   1_556  S
C644       C1223   1.491       .  S
C646       C1240   1.482       .  S
Fe647       O663   2.045       .  S
Fe647       O653   2.142       .  S
Fe647       O660   2.136       .  S
Fe647       O652   2.048       .  S
Fe647       O658   1.911       .  S
Fe648       O651   2.016       .  S
Fe648       O655   2.114       .  S
Fe648       O659   2.027       .  S
Fe648       O664   2.169       .  S
Fe648       O658   1.922       .  S
Fe649       O667   2.172       .  S
Fe649       O654   2.016       .  S
Fe649       O661   2.032       .  S
Fe649       O650   2.106       .  S
Fe649       O658   1.920       .  S
O650        C657   1.277       .  A
O651        C665   1.255       .  A
O652        C657   1.266       .  A
O653        C656   1.288       .  A
O654        C666   1.251       .  A
O655        C668   1.279       .  A
C656        O661   1.271       .  A
C656       C1193   1.484       .  S
C657       C1183   1.481       .  S
O659        C662   1.269       .  A
O660        C662   1.285       .  A
C662       C1200   1.477       .  S
O663        C668   1.267       .  A
O664        C666   1.283       .  A
C665        O667   1.286       .  A
C665       C1160   1.497       .  S
C666       C1150   1.491       .  S
C668       C1170   1.482       .  S
Fe669       O685   2.040       .  S
Fe669       O682   2.121       .  S
Fe669       O674   2.039       .  S
Fe669       O680   1.911       .  S
Fe670       O677   2.113       .  S
Fe670       O681   2.031       .  S
Fe670       O686   2.183       .  S
Fe670       O680   1.913       .  S
Fe671       O689   2.169       .  S
Fe671       O683   2.034       .  S
Fe671       O672   2.141       .  S
O672        C679   1.285       .  A
O673        C687   1.244       .  A
O675        C678   1.279       .  A
O676        C688   1.256       .  A
O677        C690   1.279       .  A
C678        O683   1.266       .  A
C678       C1130   1.465       .  S
C679       C1123   1.484       .  S
O681        C684   1.272       .  A
O682        C684   1.282       .  A
C684       C1140   1.471       .  S
O685        C690   1.265       .  A
O686        C688   1.286       .  A
C687        O689   1.282       .  A
C687       C1103   1.485       .  S
C688       C1113   1.497       .  S
C690       C1233   1.480       .  S
Fe691       O707   2.041       .  S
Fe691       O697   2.123       .  S
Fe691       O704   2.119       .  S
Fe691       O696   2.038       .  S
Fe691       O702   1.909       .  S
Fe692       O695   2.014       .  S
Fe692       O699   2.119       .  S
Fe692       O703   2.036       .  S
Fe692       O708   2.174       .  S
Fe692       O702   1.919       .  S
Fe693       O711   2.175       .  S
Fe693       O698   2.014       .  S
Fe693       O705   2.020       .  S
Fe693       O694   2.103       .  S
Fe693       O702   1.917       .  S
O694        C701   1.277       .  A
O695        C709   1.257       .  A
O696        C701   1.265       .  A
O697        C700   1.283       .  A
O698        C710   1.247       .  A
O699        C712   1.279       .  A
C700        O705   1.269       .  A
C700       C1143   1.473       .  S
C701       C1093   1.476       .  S
O703        C706   1.272       .  A
O704        C706   1.282       .  A
C706       C1133   1.465       .  S
O707        C712   1.265       .  A
O708        C710   1.283       .  A
C709        O711   1.287       .  A
C709       C1073   1.494       .  S
C710       C1083   1.499       .  S
C712       C1173   1.476       .  S
Fe713       O729   2.048       .  S
Fe713       O726   2.128       .  S
Fe713       O718   2.054       .  S
Fe713       O724   1.912       .  S
Fe714       O721   2.127       .  S
Fe714       O725   2.031       .  S
Fe714       O730   2.168       .  S
Fe714       O724   1.930       .  S
Fe715       O733   2.173       .  S
Fe715       O727   2.023       .  S
Fe715       O716   2.109       .  S
O716        C723   1.277   1_556  A
O717        C731   1.260   1_554  A
O719        C722   1.284       .  A
O720        C732   1.245       .  A
O721        C734   1.283       .  A
C722        O727   1.269       .  A
C722       C1053   1.480       .  S
C723       C1040   1.496       .  S
O725        C728   1.268       .  A
O726        C728   1.282       .  A
C728       C1063   1.472       .  S
O729        C734   1.270       .  A
O730        C732   1.282       .  A
C731        O733   1.286       .  A
C731       C1033   1.489       .  S
C732       C1213   1.486       .  S
C734       C1120   1.490       .  S
Fe735       O751   2.038       .  S
Fe735       O741   2.126       .  S
Fe735       O748   2.124       .  S
Fe735       O740   2.034       .  S
Fe735       O746   1.910       .  S
Fe736       O739   2.015       .  S
Fe736       O743   2.127       .  S
Fe736       O747   2.038       .  S
Fe736       O752   2.177       .  S
Fe736       O746   1.918       .  S
Fe737       O755   2.174       .  S
Fe737       O742   2.009       .  S
Fe737       O749   2.031       .  S
Fe737       O738   2.105       .  S
Fe737       O746   1.915       .  S
O738        C745   1.276       .  A
O739        C753   1.257       .  A
O740        C745   1.264       .  A
O741        C744   1.283       .  A
O742        C754   1.246       .  A
O743        C756   1.283       .  A
C744        O749   1.272       .  A
C744       C1050   1.477       .  S
C745       C1090   1.465       .  S
O747        C750   1.270       .  A
O748        C750   1.281       .  A
C750       C1060   1.473       .  S
O751        C756   1.267       .  A
O752        C754   1.284       .  A
C753        O755   1.286       .  A
C753       C1153   1.495       .  S
C754       C1010   1.485       .  S
C756       C1020   1.472       .  S
Fe757       O773   2.028       .  S
Fe757       O770   2.129       .  S
Fe757       O762   2.025       .  S
Fe757       O768   1.914       .  S
Fe758       O765   2.139       .  S
Fe758       O769   2.036       .  S
Fe758       O774   2.174       .  S
Fe758       O768   1.912       .  S
Fe759       O777   2.167       .  S
Fe759       O771   2.026       .  S
Fe759       O760   2.123       .  S
O760        C767   1.281       .  A
O761        C775   1.258   1_554  A
O763        C766   1.282       .  A
O764        C776   1.248       .  A
O765        C778   1.287       .  A
C766        O771   1.267       .  A
C766        C990   1.478       .  S
C767        C980   1.471       .  S
O769        C772   1.266       .  A
O770        C772   1.281       .  A
C772       C1003   1.475       .  S
O773        C778   1.267       .  A
O774        C776   1.288       .  A
C775        O777   1.285       .  A
C775        C970   1.481       .  S
C776       C1100   1.485       .  S
C778       C1043   1.478       .  S
Fe779       O795   2.046       .  S
Fe779       O785   2.129       .  S
Fe779       O792   2.128       .  S
Fe779       O784   2.044       .  S
Fe779       O790   1.908       .  S
Fe780       O783   2.013       .  S
Fe780       O787   2.102       .  S
Fe780       O791   2.031       .  S
Fe780       O796   2.177       .  S
Fe780       O790   1.921       .  S
Fe781       O799   2.181       .  S
Fe781       O786   2.014       .  S
Fe781       O793   2.034       .  S
Fe781       O782   2.125       .  S
Fe781       O790   1.931       .  S
O782        C789   1.281       .  A
O783        C797   1.246       .  A
O784        C789   1.266       .  A
O785        C788   1.284       .  A
O786        C798   1.254       .  A
O787        C800   1.276       .  A
C788        O793   1.271       .  A
C788       C1000   1.475       .  S
C789        C963   1.488       .  S
O791        C794   1.273       .  A
O792        C794   1.285       .  A
C794        C993   1.479       .  S
O795        C800   1.266       .  A
O796        C798   1.285       .  A
C797        O799   1.284       .  A
C797        C953   1.495       .  S
C798       C1070   1.495       .  S
C800       C1023   1.488       .  S
Fe801       O817   2.038       .  S
Fe801       O807   2.113       .  S
Fe801       O806   2.048   1_556  S
Fe802       O809   2.100       .  S
Fe802       O813   2.026       .  S
Fe802       O818   2.176       .  S
Fe802       O812   1.925       .  S
Fe803       O821   2.183       .  S
Fe803       O815   2.035       .  S
Fe803       O804   2.118       .  S
O804        C811   1.279       .  A
O805        C819   1.246       .  A
O806        C811   1.266   1_554  A
O807        C810   1.281       .  A
O808        C820   1.251       .  A
O809        C822   1.275       .  A
C810        O815   1.272       .  A
C810        C933   1.465       .  S
C811        C923   1.478       .  S
O813        C816   1.270       .  A
O814        C816   1.285       .  A
C816        C940   1.470       .  S
O818        C820   1.284       .  A
C819        O821   1.283       .  A
C819       C1220   1.502       .  S
C820       C1030   1.496       .  S
C822        C983   1.481       .  S
Fe823       O839   2.042       .  S
Fe823       O829   2.114       .  S
Fe823       O836   2.116       .  S
Fe823       O828   2.037       .  S
Fe823       O834   1.919       .  S
Fe824       O827   2.016       .  S
Fe824       O831   2.128       .  S
Fe824       O835   2.035       .  S
Fe824       O840   2.156       .  S
Fe824       O834   1.927       .  S
Fe825       O843   2.167       .  S
Fe825       O830   2.014       .  S
Fe825       O837   2.039       .  S
Fe825       O826   2.134       .  S
Fe825       O834   1.918       .  S
O826        C833   1.285       .  A
O827        C841   1.258       .  A
O828        C833   1.266       .  A
O829        C832   1.278       .  A
O830        C842   1.252       .  A
O831        C844   1.282       .  A
C832        O837   1.267       .  A
C832        C943   1.470       .  S
C833        C913   1.484       .  S
O835        C838   1.268       .  A
O836        C838   1.279       .  A
C838        C930   1.466       .  S
O839        C844   1.267       .  A
O840        C842   1.282       .  A
C841        O843   1.287       .  A
C841       C1163   1.480       .  S
C842       C1013   1.485       .  S
C844        C960   1.481       .  S
Fe845       O851   2.128       .  S
Fe846       O853   2.114       .  S
Fe846       O857   2.035       .  S
Fe846       O862   2.177       .  S
Fe846       O856   1.921       .  S
Fe847       O865   2.186       .  S
Fe847       O859   2.033       .  S
Fe847       O848   2.105       .  S
O848        C855   1.277       .  A
O849        C863   1.255       .  A
O851        C854   1.284       .  A
O852        C864   1.246       .  A
O853        C866   1.279       .  A
C854        O859   1.272       .  A
C854        C890   1.484       .  S
C855       C1243   1.488   1_556  S
O857        C860   1.272       .  A
O858        C860   1.281       .  A
C860        C900   1.469       .  S
O861        C866   1.271       .  A
O862        C864   1.283       .  A
C863        O865   1.291       .  A
C863       C1110   1.501       .  S
C864        C973   1.501       .  S
C866        C920   1.483       .  S
Fe867       O883   2.033       .  S
Fe867       O873   2.124       .  S
Fe867       O880   2.130       .  S
Fe867       O872   2.028       .  S
Fe867       O878   1.916       .  S
Fe868       O871   2.013       .  S
Fe868       O875   2.132       .  S
Fe868       O879   2.031       .  S
Fe868       O884   2.175       .  S
Fe868       O878   1.911       .  S
Fe869       O887   2.174       .  S
Fe869       O874   2.013       .  S
Fe869       O881   2.030       .  S
Fe869       O870   2.133       .  S
Fe869       O878   1.919       .  S
O870        C877   1.284       .  A
O871        C885   1.249       .  A
O872        C877   1.265       .  A
O873        C876   1.281       .  A
O874        C886   1.254       .  A
O875        C888   1.284       .  A
C876        O881   1.268       .  A
C876        C903   1.472       .  S
C877       C1180   1.475       .  S
O879        C882   1.267       .  A
O880        C882   1.282       .  A
C882        C893   1.479       .  S
O883        C888   1.265       .  A
O884        C886   1.290       .  A
C885        O887   1.285       .  A
C885       C1080   1.494       .  S
C886        C950   1.488       .  S
C888        C910   1.486       .  S
C889        C890   1.407       .  A
C889        C894   1.410       .  A
C889        H896   1.083       .  S
C890        C891   1.408       .  A
C891        C892   1.393       .  A
C891        F898   1.359       .  S
C892        C893   1.402       .  A
C892        H897   1.084       .  S
C893        C894   1.409       .  A
C894        F895   1.357       .  S
C899        C900   1.401       .  A
C899        C904   1.391       .  A
C899        H906   1.084       .  S
C900        C901   1.405       .  A
C901        C902   1.407       .  A
C901        F908   1.357       .  S
C902        C903   1.407       .  A
C902        H907   1.083       .  S
C903        C904   1.404       .  A
C904        F905   1.358       .  S
C909        C910   1.400       .  A
C909        C914   1.404   1_455  A
C909        H916   1.083       .  S
C910        C911   1.415       .  A
C911        C912   1.403   1_455  A
C911        F918   1.358       .  S
C912        C913   1.400       .  A
C912        H917   1.083       .  S
C913        C914   1.413       .  A
C914        F915   1.358       .  S
C919        C920   1.408       .  A
C919        H926   1.083       .  S
C920        C921   1.405       .  A
C921        F928   1.358       .  S
C922        C923   1.406   1_554  A
C922        H927   1.084       .  S
C923        C924   1.403       .  A
C924        F925   1.357       .  S
C929        C930   1.401       .  A
C929        C934   1.394       .  A
C929        H936   1.084       .  S
C930        C931   1.406       .  A
C931        C932   1.402       .  A
C931        F938   1.357       .  S
C932        C933   1.402       .  A
C932        H937   1.083       .  S
C933        C934   1.403       .  A
C934        F935   1.358       .  S
C939        C940   1.403       .  A
C939        C944   1.404       .  A
C939        H946   1.083       .  S
C940        C941   1.406       .  A
C941        C942   1.397       .  A
C941        F948   1.358       .  S
C942        C943   1.400       .  A
C942        H947   1.084       .  S
C943        C944   1.407       .  A
C944        F945   1.358       .  S
C949        C950   1.418       .  A
C949        C954   1.405       .  A
C949        H956   1.075       .  S
C950        C951   1.398       .  A
C951        C952   1.400       .  A
C951        F958   1.358       .  S
C952        C953   1.418       .  A
C952        H957   1.083       .  S
C953        C954   1.398       .  A
C954        F955   1.357       .  S
C959        C960   1.408       .  A
C959        C964   1.402   1_545  A
C959        H966   1.084       .  S
C960        C961   1.403       .  A
C961        C962   1.403   1_545  A
C961        F968   1.357       .  S
C962        C963   1.412       .  A
C962        H967   1.083       .  S
C963        C964   1.405       .  A
C964        F965   1.357       .  S
C969        C974   1.399       .  A
C969        H976   1.084       .  S
C970        C971   1.414   1_556  A
C971        C972   1.408       .  A
C971        F978   1.352       .  S
C972        H977   1.083       .  S
C973        C974   1.421       .  A
C974        F975   1.358       .  S
C979        C980   1.398       .  A
C979        C984   1.400   1_565  A
C979        H986   1.084       .  S
C981        C982   1.398   1_565  A
C981        F988   1.358       .  S
C982        C983   1.401       .  A
C982        H987   1.083       .  S
C984        F985   1.358       .  S
C989        C990   1.409       .  A
C989        C994   1.409       .  A
C989        H996   1.083       .  S
C990        C991   1.405       .  A
C991        C992   1.391       .  A
C991        F998   1.358       .  S
C992        C993   1.403       .  A
C992        H997   1.084       .  S
C993        C994   1.407       .  A
C994        F995   1.357       .  S
C999       C1000   1.404       .  A
C999       C1004   1.406       .  A
C999       H1006   1.083       .  S
C1000      C1001   1.405       .  A
C1001      C1002   1.397       .  A
C1001      F1008   1.358       .  S
C1002      C1003   1.402       .  A
C1002      H1007   1.084       .  S
C1003      C1004   1.408       .  A
C1004      F1005   1.358       .  S
C1009      C1010   1.418       .  A
C1009      C1014   1.401       .  A
C1009      H1016   1.083       .  S
C1010      C1011   1.396       .  A
C1011      C1012   1.404       .  A
C1011      F1018   1.357       .  S
C1012      C1013   1.417       .  A
C1012      H1017   1.080       .  S
C1013      C1014   1.395       .  A
C1014      F1015   1.357       .  S
C1019      C1020   1.404       .  A
C1019      C1024   1.403       .  A
C1019      H1026   1.083       .  S
C1020      C1021   1.401       .  A
C1021      C1022   1.398       .  A
C1021      F1028   1.356       .  S
C1022      C1023   1.409       .  A
C1022      H1027   1.083       .  S
C1023      C1024   1.409       .  A
C1024      F1025   1.357       .  S
C1029      C1030   1.414       .  A
C1029      C1034   1.393       .  A
C1029      H1036   1.081       .  S
C1030      C1031   1.405       .  A
C1031      F1038   1.357       .  S
C1032      C1033   1.413   1_554  A
C1032      H1037   1.062       .  S
C1034      F1035   1.358       .  S
C1039      C1040   1.407   1_556  A
C1039      C1044   1.405       .  A
C1039      H1046   1.083       .  S
C1041      C1042   1.404       .  A
C1041      F1048   1.358       .  S
C1042      C1043   1.401       .  A
C1042      H1047   1.083       .  S
C1044      F1045   1.357       .  S
C1049      C1050   1.399       .  A
C1049      C1054   1.389       .  A
C1049      H1056   1.084       .  S
C1050      C1051   1.411       .  A
C1051      C1052   1.410       .  A
C1051      F1058   1.357       .  S
C1052      C1053   1.406       .  A
C1052      H1057   1.083       .  S
C1053      C1054   1.408       .  A
C1054      F1055   1.358       .  S
C1059      C1060   1.400       .  A
C1059      C1064   1.395       .  A
C1059      H1066   1.084       .  S
C1060      C1061   1.408       .  A
C1061      C1062   1.406       .  A
C1061      F1068   1.356       .  S
C1062      C1063   1.403       .  A
C1062      H1067   1.083       .  S
C1063      C1064   1.405       .  A
C1064      F1065   1.358       .  S
C1069      C1070   1.409       .  A
C1069      C1074   1.414       .  A
C1069      H1076   1.075       .  S
C1070      C1071   1.409       .  A
C1071      C1072   1.391       .  A
C1071      F1078   1.358       .  S
C1072      C1073   1.408       .  A
C1072      H1077   1.084       .  S
C1073      C1074   1.406       .  A
C1074      F1075   1.354       .  S
C1079      C1080   1.415       .  A
C1079      C1084   1.408       .  A
C1079      H1086   1.071       .  S
C1080      C1081   1.402       .  A
C1081      C1082   1.401       .  A
C1081      F1088   1.358       .  S
C1082      C1083   1.416       .  A
C1082      H1087   1.083       .  S
C1083      C1084   1.401       .  A
C1084      F1085   1.357       .  S
C1089      C1090   1.405       .  A
C1089      C1094   1.398   1_655  A
C1089      H1096   1.084       .  S
C1090      C1091   1.399       .  A
C1091      C1092   1.398   1_655  A
C1091      F1098   1.358       .  S
C1092      C1093   1.410       .  A
C1092      H1097   1.084       .  S
C1093      C1094   1.403       .  A
C1094      F1095   1.357       .  S
C1099      C1100   1.393       .  A
C1099      C1104   1.401       .  A
C1099      H1106   1.083       .  S
C1101      C1102   1.402       .  A
C1101      F1108   1.356       .  S
C1102      C1103   1.394       .  A
C1102      H1107   1.083       .  S
C1104      F1105   1.357       .  S
C1109      C1110   1.405       .  A
C1109      C1114   1.412   1_556  A
C1109      H1116   1.082       .  S
C1111      C1112   1.395       .  A
C1111      F1118   1.359       .  S
C1112      C1113   1.404       .  A
C1112      H1117   1.084       .  S
C1114      F1115   1.349   1_554  S
C1119      C1120   1.403       .  A
C1119      C1124   1.404   1_655  A
C1119      H1126   1.083       .  S
C1121      C1122   1.405   1_655  A
C1121      F1128   1.358       .  S
C1122      C1123   1.402       .  A
C1122      H1127   1.083       .  S
C1124      F1125   1.358       .  S
C1129      C1130   1.402       .  A
C1129      C1134   1.397       .  A
C1129      H1136   1.084       .  S
C1130      C1131   1.404       .  A
C1131      C1132   1.400       .  A
C1131      F1138   1.356       .  S
C1132      C1133   1.403       .  A
C1132      H1137   1.084       .  S
C1133      C1134   1.402       .  A
C1134      F1135   1.357       .  S
C1139      C1140   1.408       .  A
C1139      C1144   1.409       .  A
C1139      H1146   1.083       .  S
C1140      C1141   1.401       .  A
C1141      C1142   1.388       .  A
C1141      F1148   1.358       .  S
C1142      C1143   1.403       .  A
C1142      H1147   1.084       .  S
C1143      C1144   1.407       .  A
C1144      F1145   1.357       .  S
C1149      C1150   1.405       .  A
C1149      C1154   1.411       .  A
C1149      H1156   1.078       .  S
C1150      C1151   1.409       .  A
C1151      C1152   1.394       .  A
C1151      F1158   1.358       .  S
C1152      C1153   1.408       .  A
C1152      H1157   1.084       .  S
C1153      C1154   1.411       .  A
C1154      F1155   1.353       .  S
C1159      C1160   1.416       .  A
C1159      C1164   1.398       .  A
C1159      H1166   1.083       .  S
C1160      C1161   1.404       .  A
C1161      C1162   1.409       .  A
C1161      F1168   1.357       .  S
C1162      C1163   1.412       .  A
C1162      H1167   1.079       .  S
C1163      C1164   1.399       .  A
C1164      F1165   1.358       .  S
C1169      C1170   1.403       .  A
C1169      C1174   1.400   1_545  A
C1169      H1176   1.083       .  S
C1170      C1171   1.411       .  A
C1171      C1172   1.401   1_545  A
C1171      F1178   1.358       .  S
C1172      C1173   1.401       .  A
C1172      H1177   1.084       .  S
C1173      C1174   1.408       .  A
C1174      F1175   1.358       .  S
C1179      C1180   1.407       .  A
C1179      C1184   1.399       .  A
C1179      H1186   1.084       .  S
C1180      C1181   1.403       .  A
C1181      C1182   1.403       .  A
C1181      F1188   1.358       .  S
C1182      C1183   1.410       .  A
C1182      H1187   1.084       .  S
C1183      C1184   1.403       .  A
C1184      F1185   1.357       .  S
C1189      C1190   1.409       .  A
C1189      C1194   1.411       .  A
C1189      H1196   1.083       .  S
C1190      C1191   1.405       .  A
C1191      C1192   1.397       .  A
C1191      F1198   1.358       .  S
C1192      C1193   1.405       .  A
C1192      H1197   1.084       .  S
C1193      C1194   1.407       .  A
C1194      F1195   1.357       .  S
C1199      C1200   1.405       .  A
C1199      C1204   1.409       .  A
C1199      H1206   1.083       .  S
C1200      C1201   1.406       .  A
C1201      C1202   1.392       .  A
C1201      F1208   1.359       .  S
C1202      C1203   1.401       .  A
C1202      H1207   1.084       .  S
C1203      C1204   1.409       .  A
C1204      F1205   1.357       .  S
C1209      C1210   1.393   1_556  A
C1209      C1214   1.401       .  A
C1209      H1216   1.083       .  S
C1211      C1212   1.398       .  A
C1211      F1218   1.349       .  S
C1212      C1213   1.390       .  A
C1212      H1217   1.083       .  S
C1214      F1215   1.357       .  S
C1219      C1220   1.417   1_554  A
C1219      H1226   1.083       .  S
C1220      C1221   1.405       .  A
C1221      F1228   1.356       .  S
C1222      C1223   1.413       .  A
C1222      H1227   1.071       .  S
C1223      C1224   1.401       .  A
C1224      F1225   1.358       .  S
C1229      C1230   1.398       .  A
C1229      C1234   1.401   1_545  A
C1229      H1236   1.084       .  S
C1231      C1232   1.399   1_545  A
C1231      F1238   1.358       .  S
C1232      C1233   1.399       .  A
C1232      H1237   1.083       .  S
C1234      F1235   1.356       .  S
C1239      C1240   1.409       .  A
C1239      C1244   1.397       .  A
C1239      H1246   1.084       .  S
C1241      C1242   1.402       .  A
C1241      F1248   1.357       .  S
C1242      C1243   1.411       .  A
C1242      H1247   1.083       .  S
C1244      F1245   1.357       .  S
