geometry optimzed in LAMMPS
_audit_creation_date              2020-12-01 
_audit_creation_method            'lammps2cif' 
_symmetry_space_group_name_H-M    'P1' 
_symmetry_Int_Tables_number       1 
_symmetry_cell_setting            triclinic 
loop_ 
_symmetry_equiv_pos_as_xyz 
  x,y,z 
_cell_length_a                    41.00489291 
_cell_length_b                    40.682595689142296 
_cell_length_c                    35.972486396939225 
_cell_angle_alpha                 89.81347705206862 
_cell_angle_beta                  90.33525790289983 
_cell_angle_gamma                 83.96122874495154 
loop_ 
_atom_site_label 
_atom_site_type_symbol 
_atom_site_fract_x 
_atom_site_fract_y 
_atom_site_fract_z 
_atom_site_charge 
C1          C  0.10466226  0.48698405  0.08561049     0.42400
N2          N  0.05458051  0.48981484  0.06754009     0.01200
C3          C  0.49196712  0.42645746  0.40646195    -0.06600
H4          H  0.06197988  0.01266086  0.37743836     0.06700
C5          C  0.48019805  0.09758915  0.45318449    -0.07000
Co6        Co  0.04632008  0.45063554  0.49854111     0.74200
N7          N  0.05074015  0.49269078  0.43100131    -0.26200
Co8        Co  0.49960250  0.99733435  0.43280922     0.74100
C9          C  0.99726829  0.09913645  0.41749390     0.42500
N10         N  0.48408784  0.06329289  0.04453426     0.00900
N11         N  0.49757130  0.04847206  0.43478021     0.01000
N12         N  0.02348739  0.39647730  0.44875019    -0.47000
H13         H  0.12256028  0.45728751  0.03386794     0.06700
N14         N  0.06890903  0.47602553  0.45663425     0.01200
N15         N  0.44834733  0.00153390  0.43489307     0.01000
C16         C  0.39780332  0.00635729  0.41632794     0.42600
N17         N  0.50129942  0.04497542  0.06946021    -0.25600
C18         C  0.02525410  0.39407333  0.04878992    -0.06500
N19         N  0.07372914  0.99805604  0.09502267    -0.46700
N20         N  0.42870147  0.49398217  0.40754546    -0.46900
C21         C  0.50789783  0.39221006  0.08412457     0.42400
N22         N  0.02033038  0.42828819  0.45717874     0.01200
N23         N  0.45247904  0.99878081  0.07012121    -0.25600
N24         N  0.07105497  0.47357590  0.04066678    -0.26100
N25         N  0.43470205  0.01618752  0.04475206     0.00900
H26         H  0.44041270  0.47757398  0.12274384     0.06800
H27         H  0.38205860  0.03813209  0.46780784     0.06800
N28         N  0.00237377  0.44631154  0.43253302    -0.26200
N29         N  0.48145155  0.06533249  0.46137271    -0.25800
N30         N  0.00581217  0.44285401  0.06651168     0.01200
C31         C  0.10308471  0.48720600  0.41447939     0.42600
C32         C  0.01270301  0.06464906  0.09505310    -0.07000
N33         N  0.43246662  0.01890687  0.46126939    -0.25800
H34         H  0.46710886  0.11714338  0.46917059     0.06800
N35         N  0.10042001  0.47192711  0.44761665    -0.47000
H36         H  0.02637041  0.05592679  0.11955729     0.06800
C37         C  0.39991257  0.00402060  0.08565477     0.42500
C38         C  0.10314183  0.47099625  0.04936344    -0.06500
Co39       Co  0.00356952  0.49398074  0.06890322     0.73800
N40         N  0.48253751  0.09519034  0.05225760    -0.46700
C41         C  0.50581362  0.39326952  0.41740005     0.42700
N42         N  0.49705780  0.42349647  0.09348683    -0.46700
Co43       Co  0.45769227  0.04142117  0.00315415     0.73900
C44         C  0.40047872  0.02304959  0.45230233    -0.07100
C45         C  0.07015900  0.00063555  0.40320497    -0.06600
N46         N  0.02281890  0.42632511  0.04027729    -0.26100
N47         N  0.00692218  0.06761844  0.40793895    -0.46900
H48         H  0.47841681  0.43465426  0.38166124     0.06700
C49         C  0.43263404  0.49021307  0.09719800    -0.07000
Cl50       Cl  0.00180373  0.99582018  0.00083992    -0.50000
C51         C  0.00026805  0.09827414  0.08362650     0.42500
H52         H  0.03927224  0.37471608  0.03337530     0.06700
N53         N  0.40309135  0.02024697  0.05324135    -0.46700
C54         C  0.00881606  0.27390563  0.17345384     0.80100
N55         N  0.00814955  0.24514951  0.15481813    -0.78200
C56         C  0.00598948  0.21632581  0.17322077     0.82600
N57         N  0.00399799  0.21662264  0.21088811    -0.78100
C58         C  0.00468301  0.24532686  0.22993690     0.82700
N59         N  0.00683420  0.27403280  0.21109007    -0.79900
C60         C  0.00387686  0.27500791  0.32704047     0.80100
N61         N  0.00139270  0.24634969  0.34570411    -0.78200
C62         C  0.99964405  0.21745522  0.32763133     0.82600
N63         N  0.00101871  0.21691210  0.28991003    -0.78100
C64         C  0.00348669  0.24538504  0.27070177     0.82700
N65         N  0.00498432  0.27413935  0.28940053    -0.79900
C66         C  0.22340996  0.50115637  0.17090393     0.80100
N67         N  0.22267465  0.50103023  0.20883843    -0.78200
C68         C  0.25078173  0.50205527  0.22907166     0.82600
N69         N  0.27980134  0.50303586  0.21103049    -0.78100
C70         C  0.28100428  0.50313190  0.17323299     0.82700
N71         N  0.25269566  0.50180525  0.15375563    -0.79900
C72         C  0.22102113  0.49677123  0.32660368     0.80100
N73         N  0.22169085  0.49795721  0.28874198    -0.78200
C74         C  0.25004550  0.50170254  0.27033859     0.82600
N75         N  0.27793070  0.50482923  0.29019977    -0.78100
C76         C  0.27763454  0.50448622  0.32805509     0.82700
N77         N  0.24923962  0.50008063  0.34582698    -0.79900
C78         C  0.01835857  0.15865396  0.34031329    -0.05900
C79         C  0.99725490  0.18683381  0.34926639     0.00000
C80         C  0.47493296  0.18546895  0.37899402    -0.08500
C81         C  0.47614768  0.15645909  0.40036260    -0.05900
C82         C  0.99801179  0.12840915  0.39250666     0.00000
C83         C  0.01905182  0.12916263  0.36113716    -0.08400
C84         C  0.04232794  0.09947005  0.34937557     0.61900
H85         H  0.03472509  0.16016567  0.31699046     0.12600
H86         H  0.45945730  0.15564001  0.42336844     0.12600
C87         C  0.44889101  0.21389593  0.38739729     0.62200
F88         F  0.06172257  0.10677043  0.31969698    -0.23000
F89         F  0.02454667  0.07408996  0.33834479    -0.20300
F90         F  0.06296837  0.08899078  0.37859414    -0.20000
F91         F  0.43277504  0.22454096  0.35494245    -0.20100
F92         F  0.46315320  0.23980095  0.40326223    -0.20400
F93         F  0.42561247  0.20458153  0.41192513    -0.23000
C94         C  0.00261481  0.36607344  0.35623091    -0.05900
C95         C  0.00616925  0.36268936  0.39495159     0.00000
C96         C  0.50952581  0.33069724  0.41095539    -0.08500
C97         C  0.50930529  0.30328742  0.38740457    -0.05900
C98         C  0.00525389  0.30636987  0.34851339     0.00000
C99         C  0.00198226  0.33869419  0.33248727    -0.08400
C100        C  0.99765549  0.34510931  0.29090175     0.61900
H101        H  0.00066929  0.39066995  0.34442705     0.12600
H102        H  0.51260454  0.27889035  0.39971992     0.12600
C103        C  0.51288082  0.32511596  0.45271189     0.62200
F104        F  0.99385839  0.37853492  0.28244036    -0.23000
F105        F  0.96993790  0.33194296  0.27812086    -0.20300
F106        F  0.02502435  0.33123176  0.27210491    -0.20000
F107        F  0.48816896  0.34425924  0.47106887    -0.20100
F108        F  0.54307354  0.33330509  0.46471698    -0.20400
F109        F  0.51066667  0.29246741  0.46243809    -0.22700
C110        C  0.98988162  0.18834258  0.11629397    -0.05900
C111        C  0.00486798  0.18545324  0.15153753     0.00000
C112        C  0.51939547  0.15409698  0.16374417    -0.08500
C113        C  0.51768559  0.12675974  0.14027770    -0.05900
C114        C  0.00198757  0.12936401  0.10526648     0.00000
C115        C  0.98814339  0.16106128  0.09275472    -0.08400
C116        C  0.97150282  0.16675978  0.05500611     0.61900
H117        H  0.97895099  0.21248477  0.10739783     0.12600
H118        H  0.52841517  0.10288230  0.14984863     0.12600
C119        C  0.53693808  0.14910195  0.20106167     0.62200
F120        F  0.96211450  0.19992308  0.04808705    -0.23000
F121        F  0.94352214  0.15055025  0.05353364    -0.20300
F122        F  0.99284929  0.15541972  0.02711652    -0.20000
F123        F  0.51430568  0.15292014  0.22948547    -0.20100
F124        F  0.55962515  0.17173185  0.20517392    -0.20400
F125        F  0.55365209  0.11782981  0.20442100    -0.23000
C126        C  0.48521263  0.33048173  0.15754714    -0.05900
C127        C  0.01040459  0.30487559  0.15254117     0.00000
C128        C  0.03573548  0.30877005  0.12690690    -0.08500
C129        C  0.03406503  0.33787273  0.10561994    -0.05900
C130        C  0.00812542  0.36311263  0.10924835     0.00000
C131        C  0.48344021  0.35971749  0.13623933    -0.08400
C132        C  0.45486725  0.38612320  0.14213138     0.61900
H133        H  0.46642210  0.32695529  0.17778599     0.12600
H134        H  0.05323804  0.34096009  0.08579359     0.12600
C135        C  0.06474484  0.28259928  0.12246052     0.62200
F136        F  0.43209459  0.37584256  0.16670480    -0.23000
F137        F  0.43893161  0.39368252  0.10869982    -0.20300
F138        F  0.46620739  0.41423063  0.15670445    -0.20000
F139        F  0.05473500  0.25511304  0.10502948    -0.20100
F140        F  0.07790460  0.27355147  0.15696753    -0.20400
F141        F  0.08935477  0.29397590  0.10130087    -0.23000
C142        C  0.33780126  0.99080827  0.33657044    -0.05900
C143        C  0.30843401  0.50741197  0.34973882     0.00000
C144        C  0.30929831  0.52572401  0.38319415    -0.08500
C145        C  0.33868917  0.52402285  0.40385772    -0.05900
C146        C  0.36801268  0.50643575  0.39160473     0.00000
C147        C  0.36770773  0.99021925  0.35647502    -0.08400
C148        C  0.39838166  0.97213455  0.33957111     0.61900
H149        H  0.33696693  0.97756990  0.31058228     0.12600
H150        H  0.33851533  0.53676100  0.43014814     0.12600
C151        C  0.27968870  0.54711148  0.39799374     0.62200
F152        F  0.39217278  0.95855328  0.30533036    -0.23000
F153        F  0.41079046  0.44658031  0.36282477    -0.20300
F154        F  0.42163618  0.99395657  0.33421873    -0.20000
F155        F  0.26079560  0.52763422  0.41847210    -0.20100
F156        F  0.26122389  0.56247716  0.36932546    -0.20400
F157        F  0.28904487  0.57176794  0.42096236    -0.23000
C158        C  0.18844080  0.50447493  0.38473571    -0.05900
C159        C  0.18992897  0.49314051  0.34771742     0.00000
C160        C  0.16246990  0.47835185  0.33324495    -0.08500
C161        C  0.13461548  0.47686324  0.35602797    -0.05900
C162        C  0.13375097  0.48811966  0.39290836     0.00000
C163        C  0.16125965  0.50170041  0.40776291    -0.08400
C164        C  0.16157513  0.51406230  0.44757340     0.61900
H165        H  0.20881260  0.51602046  0.39575297     0.12600
H166        H  0.11312511  0.96665377  0.34523191     0.12600
C167        C  0.16225796  0.46357468  0.29449018     0.62200
F168        F  0.18958274  0.52900097  0.45562296    -0.23000
F169        F  0.16042357  0.48780491  0.47186315    -0.20300
F170        F  0.13477151  0.03692905  0.45350940    -0.20000
F171        F  0.18989648  0.44143677  0.28962035    -0.20100
F172        F  0.16144512  0.98851814  0.26809249    -0.20400
F173        F  0.13509159  0.94669590  0.28851642    -0.23000
C174        C  0.36859344  0.51741518  0.14345847    -0.05900
C175        C  0.36926775  0.50441317  0.10736209     0.00000
C176        C  0.34133404  0.99112643  0.09317223    -0.08500
C177        C  0.31395524  0.98999356  0.11634857    -0.05900
C178        C  0.31259309  0.50359056  0.15241399     0.00000
C179        C  0.34036380  0.51832811  0.16595348    -0.08400
C180        C  0.34020050  0.53615722  0.20303357     0.61900
H181        H  0.39032511  0.52758714  0.15359724     0.12600
H182        H  0.29314786  0.97842051  0.10609819     0.12600
C183        C  0.34059630  0.97798154  0.05373325     0.62200
F184        F  0.36784897  0.55255789  0.20779467    -0.23000
F185        F  0.33946151  0.51373719  0.23189946    -0.20300
F186        F  0.31312635  0.05947687  0.20488641    -0.20000
F187        F  0.36665546  0.45410343  0.04835684    -0.20100
F188        F  0.34276029  0.00358934  0.02878833    -0.20400
F189        F  0.31192377  0.96404712  0.04611231    -0.23000
C190        C  0.16723146  0.48345177  0.16484441    -0.05900
C191        C  0.19276126  0.49894137  0.14843672     0.00000
C192        C  0.18831905  0.51125024  0.11126572    -0.08500
C193        C  0.15923416  0.50639751  0.09198665    -0.05900
C194        C  0.13415836  0.49086228  0.10845898     0.00000
C195        C  0.13793372  0.47922457  0.14554386    -0.08400
C196        C  0.11171641  0.46129213  0.16418311     0.61900
H197        H  0.17059494  0.47404240  0.19292715     0.12600
H198        H  0.15568132  0.01492405  0.06353370     0.12600
C199        C  0.21348784  0.52976422  0.09138931     0.62200
F200        F  0.12167326  0.94910784  0.19888159    -0.23000
F201        F  0.10471885  0.93483685  0.14247293    -0.20300
F202        F  0.08354657  0.48269175  0.16869888    -0.20000
F203        F  0.24011350  0.00797478  0.08163109    -0.20100
F204        F  0.22350244  0.55425279  0.11405223    -0.20400
F205        F  0.20088236  0.54488214  0.05906539    -0.23000
C206        C  0.10466075  0.48698637  0.58561095     0.42400
N207        N  0.05457897  0.48981694  0.56754046     0.01200
C208        C  0.49196633  0.42645546  0.90646339    -0.06600
H209        H  0.06197317  0.01265929  0.87743402     0.06700
C210        C  0.48020190  0.09759016  0.95318688    -0.07000
Co211      Co  0.04632095  0.45063383  0.99854041     0.74200
N212        N  0.05074191  0.49268999  0.93100139    -0.26200
Co213      Co  0.49960631  0.99733511  0.93281003     0.74100
C214        C  0.99726113  0.09913514  0.91748935     0.42500
N215        N  0.48408669  0.06329306  0.54453163     0.00900
N216        N  0.49757494  0.04847307  0.93478205     0.01000
N217        N  0.02348647  0.39647648  0.94874842    -0.47000
H218        H  0.12255896  0.45729012  0.53386832     0.06700
N219        N  0.06891040  0.47602390  0.95663404     0.01200
N220        N  0.44835093  0.00153424  0.93489299     0.01000
C221        C  0.39780666  0.00635685  0.91632862     0.42600
N222        N  0.50129640  0.04497622  0.56945959    -0.25600
C223        C  0.02525374  0.39407488  0.54879065    -0.06500
N224        N  0.07373058  0.99805342  0.59502609    -0.46700
N225        N  0.42869877  0.49398184  0.90754725    -0.46900
C226        C  0.50789864  0.39220843  0.58412255     0.42400
N227        N  0.02033084  0.42828734  0.95717738     0.01200
N228        N  0.45247774  0.99878086  0.57012114    -0.25600
N229        N  0.07105363  0.47357832  0.54066708    -0.26100
N230        N  0.43470040  0.01618756  0.54475226     0.00900
H231        H  0.44041327  0.47757114  0.62274222     0.06800
H232        H  0.38206291  0.03813327  0.96780779     0.06800
N233        N  0.00237471  0.44631149  0.93253195    -0.26200
N234        N  0.48145497  0.06533334  0.96137458    -0.25800
N235        N  0.00581122  0.44285546  0.56651214     0.01200
C236        C  0.10308673  0.48720522  0.91448024     0.42600
C237        C  0.01271303  0.06464807  0.59504963    -0.07000
N238        N  0.43247028  0.01890740  0.96126923    -0.25800
H239        H  0.46711279  0.11714452  0.96917294     0.06800
N240        N  0.10042146  0.47192541  0.94761685    -0.47000
H241        H  0.02638624  0.05592594  0.61954995     0.06800
C242        C  0.39991161  0.00402040  0.58565552     0.42500
C243        C  0.10314045  0.47099883  0.54936378    -0.06500
Co244      Co  0.00356781  0.49398202  0.56890352     0.73800
N245        N  0.48253390  0.09519047  0.55225555    -0.46700
C246        C  0.50581477  0.39326811  0.91740135     0.42700
N247        N  0.49705883  0.42349483  0.59348518    -0.46700
Co248      Co  0.45768978  0.04142083  0.50315325     0.73900
C249        C  0.40048249  0.02304988  0.95230250    -0.07100
C250        C  0.07015327  0.00063462  0.90320063    -0.06600
N251        N  0.02281859  0.42632666  0.54027816    -0.26100
N252        N  0.00691579  0.06761711  0.90793507    -0.46900
H253        H  0.47841678  0.43465165  0.88166195     0.06700
C254        C  0.43263467  0.49021047  0.59719649    -0.07000
Cl255      Cl  0.00180648  0.99582030  0.50084130    -0.50000
C256        C  0.00027889  0.09827338  0.58362323     0.42500
H257        H  0.03927205  0.37471749  0.53337638     0.06700
N258        N  0.40308984  0.02024687  0.55324208    -0.46700
C259        C  0.00881194  0.27390813  0.67345286     0.80100
N260        N  0.00815059  0.24515167  0.65481676    -0.78200
C261        C  0.00598960  0.21632742  0.67321802     0.82600
N262        N  0.00399269  0.21662474  0.71088501    -0.78100
C263        C  0.00467372  0.24532907  0.72993453     0.82700
N264        N  0.00682527  0.27403534  0.71108863    -0.79900
C265        C  0.00386760  0.27500879  0.82703850     0.80100
N266        N  0.00138515  0.24635007  0.84570184    -0.78200
C267        C  0.99963659  0.21745567  0.82762872     0.82600
N268        N  0.00100982  0.21691321  0.78990728    -0.78100
C269        C  0.00347614  0.24538669  0.77069936     0.82700
N270        N  0.00497359  0.27414079  0.78939853    -0.79900
C271        C  0.22340989  0.50115631  0.67090269     0.80100
N272        N  0.22267475  0.50103095  0.70883717    -0.78200
C273        C  0.25078190  0.50205626  0.72907011     0.82600
N274        N  0.27980149  0.50303639  0.71102866    -0.78100
C275        C  0.28100426  0.50313153  0.67323112     0.82700
N276        N  0.25269556  0.50180454  0.65375404    -0.79900
C277        C  0.22102193  0.49677286  0.82660259     0.80100
N278        N  0.22169150  0.49795793  0.78874081    -0.78200
C279        C  0.25004570  0.50170458  0.77033703     0.82600
N280        N  0.27793061  0.50483335  0.79019784    -0.78100
C281        C  0.27763451  0.50449145  0.82805313     0.82700
N282        N  0.24924015  0.50008465  0.84582539    -0.79900
C283        C  0.01834880  0.15865284  0.84030718    -0.05900
C284        C  0.99724786  0.18683384  0.84926349     0.00000
C285        C  0.47493246  0.18546775  0.87899150    -0.08500
C286        C  0.47614778  0.15645833  0.90036112    -0.05900
C287        C  0.99800430  0.12840798  0.89250204     0.00000
C288        C  0.01904181  0.12916095  0.86113021    -0.08400
C289        C  0.04231482  0.09946720  0.84936518     0.61900
H290        H  0.03471343  0.16016402  0.81698250     0.12600
H291        H  0.45945493  0.15563790  0.92336451     0.12600
C292        C  0.44888726  0.21389295  0.88739017     0.62200
F293        F  0.06170684  0.10676669  0.81968393    -0.23000
F294        F  0.02453053  0.07408865  0.83833674    -0.20300
F295        F  0.06295790  0.08898613  0.87858082    -0.20000
F296        F  0.43277250  0.22453361  0.85493310    -0.20100
F297        F  0.46314548  0.23980122  0.90325342    -0.20400
F298        F  0.42560844  0.20457800  0.91191732    -0.23000
C299        C  0.00260843  0.36607408  0.85622937    -0.05900
C300        C  0.00616496  0.36268977  0.89494985     0.00000
C301        C  0.50952939  0.33069594  0.91095589    -0.08500
C302        C  0.50930843  0.30328637  0.88740483    -0.05900
C303        C  0.00524524  0.30637062  0.84851165     0.00000
C304        C  0.00197328  0.33869508  0.83248581    -0.08400
C305        C  0.99764345  0.34511063  0.79090068     0.61900
H306        H  0.00066335  0.39067057  0.84442553     0.12600
H307        H  0.51260573  0.27888925  0.89972021     0.12600
C308        C  0.51288491  0.32511436  0.95271231     0.62200
F309        F  0.99384544  0.37853633  0.78243978    -0.23000
F310        F  0.96992505  0.33194419  0.77812233    -0.20300
F311        F  0.02501099  0.33123353  0.77210118    -0.20000
F312        F  0.48817254  0.34425647  0.97106978    -0.20100
F313        F  0.54307727  0.33330476  0.96471711    -0.20400
F314        F  0.51067241  0.29246546  0.96243827    -0.22700
C315        C  0.98991949  0.18834645  0.61627200    -0.05900
C316        C  0.00487402  0.18545389  0.65153313     0.00000
C317        C  0.51941174  0.15410239  0.66373140    -0.08500
C318        C  0.51770280  0.12676598  0.64026358    -0.05900
C319        C  0.00199956  0.12936284  0.60526281     0.00000
C320        C  0.98818721  0.16106478  0.59273201    -0.08400
C321        C  0.97158803  0.16676782  0.55496127     0.61900
H322        H  0.97900840  0.21249148  0.60736140     0.12600
H323        H  0.52845729  0.10289310  0.64982040     0.12600
C324        C  0.53697981  0.14911364  0.70103440     0.62200
F325        F  0.96224153  0.19993537  0.54802077    -0.23000
F326        F  0.94358797  0.15059048  0.55345897    -0.20300
F327        F  0.99295205  0.15539559  0.52710157    -0.20000
F328        F  0.51436441  0.15291572  0.72947659    -0.20100
F329        F  0.55965419  0.17175852  0.70512981    -0.20400
F330        F  0.55371310  0.11784921  0.70437863    -0.23000
C331        C  0.48521590  0.33048157  0.65754866    -0.05900
C332        C  0.01040077  0.30487810  0.65254077     0.00000
C333        C  0.03573524  0.30877460  0.62691184    -0.08500
C334        C  0.03406558  0.33787717  0.60562486    -0.05900
C335        C  0.00812279  0.36311437  0.60924759     0.00000
C336        C  0.48344364  0.35971748  0.63624108    -0.08400
C337        C  0.45487378  0.38612562  0.64213820     0.61900
H338        H  0.46642736  0.32695677  0.67779053     0.12600
H339        H  0.05324143  0.34096654  0.58580270     0.12600
C340        C  0.06474702  0.28260580  0.62247062     0.62200
F341        F  0.43210332  0.37584702  0.66671573    -0.23000
F342        F  0.43893402  0.39368683  0.60870946    -0.20300
F343        F  0.46621875  0.41423144  0.65670932    -0.20000
F344        F  0.05474188  0.25511872  0.60503684    -0.20100
F345        F  0.07790207  0.27355866  0.65697996    -0.20400
F346        F  0.08935918  0.29398442  0.60131618    -0.23000
C347        C  0.33780509  0.99082791  0.83656206    -0.05900
C348        C  0.30843384  0.50741782  0.84973651     0.00000
C349        C  0.30929830  0.52573142  0.88319068    -0.08500
C350        C  0.33868867  0.52402954  0.90385512    -0.05900
C351        C  0.36801137  0.50643955  0.89160420     0.00000
C352        C  0.36771315  0.99024141  0.85646367    -0.08400
C353        C  0.39839347  0.97218766  0.83953958     0.61900
H354        H  0.33697546  0.97760812  0.81056124     0.12600
H355        H  0.33851501  0.53676897  0.93014475     0.12600
C356        C  0.27968919  0.54712079  0.89798831     0.62200
F357        F  0.39218964  0.95863470  0.80528224    -0.23000
F358        F  0.41078569  0.44657968  0.86282906    -0.20300
F359        F  0.42163558  0.99402771  0.83421446    -0.20000
F360        F  0.26079435  0.52764530  0.91846652    -0.20100
F361        F  0.26122609  0.56248631  0.86931862    -0.20400
F362        F  0.28904577  0.57177725  0.92095665    -0.23000
C363        C  0.18844470  0.50446867  0.88473778    -0.05900
C364        C  0.18993042  0.49314006  0.84771715     0.00000
C365        C  0.16246949  0.47835525  0.83324330    -0.08500
C366        C  0.13461547  0.47686621  0.85602690    -0.05900
C367        C  0.13375306  0.48811805  0.89290909     0.00000
C368        C  0.16126399  0.50169357  0.90776537    -0.08400
C369        C  0.16158253  0.51404962  0.94757813     0.61900
H370        H  0.20881814  0.51601008  0.89575692     0.12600
H371        H  0.11312651  0.96664115  0.84523166     0.12600
C372        C  0.16225487  0.46358265  0.79448642     0.62200
F373        F  0.18959245  0.52898385  0.95562943    -0.23000
F374        F  0.16042914  0.48778925  0.97186333    -0.20300
F375        F  0.13475113  0.03694629  0.95349225    -0.20000
F376        F  0.18989166  0.44144329  0.78961247    -0.20100
F377        F  0.16144748  0.98850329  0.76808960    -0.20400
F378        F  0.13509898  0.94667963  0.78851951    -0.23000
C379        C  0.36859260  0.51741601  0.64345474    -0.05900
C380        C  0.36926819  0.50440985  0.60736028     0.00000
C381        C  0.34133328  0.99112694  0.59317503    -0.08500
C382        C  0.31395478  0.98999532  0.61635199    -0.05900
C383        C  0.31259306  0.50358944  0.65241193     0.00000
C384        C  0.34036278  0.51832973  0.66594958    -0.08400
C385        C  0.34019801  0.53616281  0.70302729     0.61900
H386        H  0.39032341  0.52759043  0.65359211     0.12600
H387        H  0.29314693  0.97842257  0.60610235     0.12600
C388        C  0.34059477  0.97798080  0.55373663     0.62200
F389        F  0.36784542  0.55256552  0.70778635    -0.23000
F390        F  0.33945976  0.51374565  0.73189614    -0.20300
F391        F  0.31312945  0.05947993  0.70488870    -0.20000
F392        F  0.36666053  0.45409087  0.54836486    -0.20100
F393        F  0.34275863  0.00358773  0.52879055    -0.20400
F394        F  0.31192195  0.96404641  0.54611701    -0.23000
C395        C  0.16723075  0.48345305  0.66484424    -0.05900
C396        C  0.19276084  0.49894184  0.64843600     0.00000
C397        C  0.18831843  0.51125088  0.61126515    -0.08500
C398        C  0.15923305  0.50639900  0.59198660    -0.05900
C399        C  0.13415699  0.49086443  0.60845935     0.00000
C400        C  0.13793252  0.47922667  0.64554423    -0.08400
C401        C  0.11171495  0.46129495  0.66418400     0.61900
H402        H  0.17059439  0.47404365  0.69292695     0.12600
H403        H  0.15568059  0.01492552  0.56353759     0.12600
C404        C  0.21348752  0.52976429  0.59138847     0.62200
F405        F  0.12167940  0.94910135  0.69888294    -0.23000
F406        F  0.10472524  0.93483160  0.64247373    -0.20300
F407        F  0.08354540  0.48269503  0.66869952    -0.20000
F408        F  0.24011301  0.00797962  0.58163409    -0.20100
F409        F  0.22350279  0.55425258  0.61405133    -0.20400
F410        F  0.20088204  0.54488249  0.55906472    -0.23000
C411        C  0.10467151  0.98697959  0.08560035     0.42400
N412        N  0.05458781  0.98981318  0.06753496     0.01200
C413        C  0.49194241  0.92644791  0.40648024    -0.06600
H414        H  0.06198837  0.51266850  0.37744073     0.06700
C415        C  0.48021267  0.59759001  0.45318206    -0.07000
Co416      Co  0.04631951  0.95062902  0.49854177     0.74200
N417        N  0.05073486  0.99268329  0.43099987    -0.26200
Co418      Co  0.49962703  0.49733932  0.43280423     0.74100
C419        C  0.99726362  0.59913876  0.41749430     0.42500
N420        N  0.48409603  0.56329328  0.04452728     0.00900
N421        N  0.49759809  0.54847494  0.43478243     0.01000
N422        N  0.02347891  0.89647220  0.44875606    -0.47000
H423        H  0.12256312  0.95727912  0.03385800     0.06700
N424        N  0.06890489  0.97601688  0.45663114     0.01200
N425        N  0.44836955  0.50154214  0.43487620     0.01000
C426        C  0.39782396  0.50635074  0.41631517     0.42600
N427        N  0.50129203  0.54497599  0.06946589    -0.25600
C428        C  0.02524904  0.89407197  0.04879509    -0.06500
N429        N  0.07371880  0.49805844  0.09503020    -0.46700
N430        N  0.42867808  0.99397860  0.40756190    -0.46900
C431        C  0.50790018  0.89221047  0.08412946     0.42400
N432        N  0.02032426  0.92828321  0.45718394     0.01200
N433        N  0.45247312  0.49878407  0.07011097    -0.25600
N434        N  0.07105894  0.97357206  0.04066087    -0.26100
N435        N  0.43470126  0.51619379  0.04474014     0.00900
H436        H  0.44042508  0.97756117  0.12275141     0.06800
H437        H  0.38207313  0.53811581  0.46780064     0.06800
N438        N  0.00236727  0.94630717  0.43253901    -0.26200
N439        N  0.48147172  0.56533357  0.46137154    -0.25800
N440        N  0.00581625  0.94285508  0.06651767     0.01200
C441        C  0.10307769  0.98719549  0.41447303     0.42600
C442        C  0.01268479  0.56464946  0.09506489    -0.07000
N443        N  0.43248534  0.51890925  0.46125475    -0.25800
H444        H  0.46711549  0.61714245  0.46916349     0.06800
N445        N  0.10041488  0.97191701  0.44761067    -0.47000
H446        H  0.02634393  0.55592740  0.11957476     0.06800
C447        C  0.39990656  0.50403984  0.08564403     0.42500
C448        C  0.10314684  0.97099037  0.04935435    -0.06500
Co449      Co  0.00357648  0.99398162  0.06890366     0.73800
N450        N  0.48253812  0.59519036  0.05225363    -0.46700
C451        C  0.50579410  0.89326178  0.41741893     0.42700
N452        N  0.49706462  0.92349752  0.09349415    -0.46700
Co453      Co  0.45770138  0.54142303  0.00314473     0.73900
C454        C  0.40049679  0.52304244  0.45229034    -0.07100
C455        C  0.07016609  0.50064397  0.40320823    -0.06600
N456        N  0.02281908  0.92632361  0.04028236    -0.26100
N457        N  0.00692371  0.56762200  0.40794146    -0.46900
H458        H  0.47838745  0.93464122  0.38168139     0.06700
C459        C  0.43264318  0.99020233  0.09720786    -0.07000
Cl460      Cl  0.00180541  0.49582245  0.00083895    -0.50000
C461        C  0.00025208  0.59827479  0.08363565     0.42500
H462        H  0.03926164  0.87471233  0.03337842     0.06700
N463        N  0.40309047  0.52026245  0.05322891    -0.46700
C464        C  0.00878740  0.77390757  0.17345793     0.80100
N465        N  0.00812071  0.74515057  0.15482381    -0.78200
C466        C  0.00596193  0.71632773  0.17322856     0.82600
N467        N  0.00397149  0.71662567  0.21089545    -0.78100
C468        C  0.00465566  0.74533075  0.22994229     0.82700
N469        N  0.00680628  0.77403617  0.21109425    -0.79900
C470        C  0.00385661  0.77500868  0.32704622     0.80100
N471        N  0.00137670  0.74634914  0.34570861    -0.78200
C472        C  0.99962755  0.71745576  0.32763415     0.82600
N473        N  0.00099778  0.71691463  0.28991313    -0.78100
C474        C  0.00346162  0.74538869  0.27070633     0.82700
N475        N  0.00495907  0.77414232  0.28940607    -0.79900
C476        C  0.22341202  0.00116081  0.17090191     0.80100
N477        N  0.22267331  0.00103788  0.20883601    -0.78200
C478        C  0.25077862  0.00206509  0.22907147     0.82600
N479        N  0.27979991  0.00304331  0.21103331    -0.78100
C480        C  0.28100589  0.00313522  0.17323614     0.82700
N481        N  0.25269896  0.00180754  0.15375603    -0.79900
C482        C  0.22101229  0.99678059  0.32660011     0.80100
N483        N  0.22168472  0.99796480  0.28873862    -0.78200
C484        C  0.25003898  0.00171575  0.27033745     0.82600
N485        N  0.27792131  0.00484976  0.29020015    -0.78100
C486        C  0.27762273  0.00450885  0.32805507     0.82700
N487        N  0.24922856  0.00009726  0.34582502    -0.79900
C488        C  0.01834703  0.65865623  0.34031280    -0.05900
C489        C  0.99724057  0.68683378  0.34926648     0.00000
C490        C  0.47491800  0.68545810  0.37897808    -0.08500
C491        C  0.47613816  0.65644876  0.40034730    -0.05900
C492        C  0.99800263  0.62840974  0.39250525     0.00000
C493        C  0.01904312  0.62916483  0.36113632    -0.08400
C494        C  0.04232290  0.59947454  0.34937544     0.61900
H495        H  0.03471391  0.66017022  0.31699067     0.12600
H496        H  0.45943959  0.65562226  0.42334439     0.12600
C497        C  0.44886158  0.71387543  0.38736727     0.62200
F498        F  0.06171549  0.60677658  0.31969568    -0.23000
F499        F  0.02454548  0.57409087  0.33834660    -0.20300
F500        F  0.06296525  0.58899931  0.37859380    -0.20000
F501        F  0.43275150  0.72450826  0.35490466    -0.20100
F502        F  0.46310623  0.73979112  0.40323285    -0.20400
F503        F  0.42558115  0.70455333  0.41188805    -0.23000
C504        C  0.00261082  0.86607184  0.35623783    -0.05900
C505        C  0.00615511  0.86268696  0.39495924     0.00000
C506        C  0.50951073  0.83068982  0.41097087    -0.08500
C507        C  0.50929062  0.80328129  0.38741777    -0.05900
C508        C  0.00523409  0.80636956  0.34852051     0.00000
C509        C  0.00197605  0.83869357  0.33249363    -0.08400
C510        C  0.99766268  0.84510964  0.29090676     0.61900
H511        H  0.00067550  0.89066821  0.34443421     0.12600
H512        H  0.51258331  0.77888358  0.39973214     0.12600
C513        C  0.51286359  0.82510725  0.45272743     0.62200
F514        F  0.99388250  0.87853520  0.28244454    -0.23000
F515        F  0.96994109  0.83195637  0.27811641    -0.20300
F516        F  0.02503162  0.83122021  0.27211883    -0.20000
F517        F  0.48814894  0.84424751  0.47108333    -0.20100
F518        F  0.54305420  0.83329967  0.46473568    -0.20400
F519        F  0.51065299  0.79245762  0.46245174    -0.22700
C520        C  0.98982909  0.68833900  0.11631918    -0.05900
C521        C  0.00484050  0.68545464  0.15154848     0.00000
C522        C  0.51946646  0.65412104  0.16370190    -0.08500
C523        C  0.51776098  0.62678533  0.14023154    -0.05900
C524        C  0.00196627  0.62936567  0.10527637     0.00000
C525        C  0.98809005  0.66105743  0.09278094    -0.08400
C526        C  0.97141237  0.66675030  0.05505208     0.61900
H527        H  0.97887938  0.71247769  0.10743479     0.12600
H528        H  0.52858982  0.60292638  0.14974724     0.12600
C529        C  0.53711185  0.64915426  0.20096106     0.62200
F530        F  0.96197884  0.69990869  0.04815447    -0.23000
F531        F  0.94345352  0.65050516  0.05360406    -0.20300
F532        F  0.99274595  0.65544569  0.02713577    -0.20000
F533        F  0.51454876  0.65290953  0.22945937    -0.20100
F534        F  0.55974743  0.67184515  0.20500257    -0.20400
F535        F  0.55390370  0.61791358  0.20426191    -0.23000
C536        C  0.48520121  0.83048036  0.15754381    -0.05900
C537        C  0.01038103  0.80487620  0.15254402     0.00000
C538        C  0.03571059  0.80876365  0.12690566    -0.08500
C539        C  0.03404606  0.83786642  0.10561952    -0.05900
C540        C  0.00811469  0.86311413  0.10925378     0.00000
C541        C  0.48343360  0.85971720  0.13623799    -0.08400
C542        C  0.45486455  0.88612688  0.14213159     0.61900
H543        H  0.46640948  0.82695572  0.17778183     0.12600
H544        H  0.05321777  0.84094786  0.08578962     0.12600
C545        C  0.06471310  0.78258563  0.12245435     0.62200
F546        F  0.43208630  0.87584613  0.16669791    -0.23000
F547        F  0.43893390  0.89369617  0.10869933    -0.20300
F548        F  0.46620934  0.91422832  0.15671420    -0.20000
F549        F  0.05469414  0.75510513  0.10501997    -0.20100
F550        F  0.07787269  0.77353047  0.15695939    -0.20400
F551        F  0.08932595  0.79395711  0.10129504    -0.23000
C552        C  0.33781276  0.49077483  0.33657400    -0.05900
C553        C  0.30842051  0.00743714  0.34973980     0.00000
C554        C  0.30928171  0.02574140  0.38320076    -0.08500
C555        C  0.33866973  0.02403251  0.40386990    -0.05900
C556        C  0.36799482  0.00645141  0.39161289     0.00000
C557        C  0.36772046  0.49018707  0.35647710    -0.08400
C558        C  0.39839009  0.47208386  0.33958459     0.61900
H559        H  0.33697555  0.47752890  0.31059111     0.12600
H560        H  0.33849256  0.03676078  0.43016679     0.12600
C561        C  0.27967338  0.04713161  0.39799849     0.62200
F562        F  0.39217511  0.45847596  0.30535986    -0.23000
F563        F  0.41078354  0.94661395  0.36278754    -0.20300
F564        F  0.42164809  0.49389714  0.33420412    -0.20000
F565        F  0.26077836  0.02765768  0.41847807    -0.20100
F566        F  0.26121002  0.06249744  0.36932916    -0.20400
F567        F  0.28903204  0.07178794  0.42096566    -0.23000
C568        C  0.18844373  0.00444072  0.38474494    -0.05900
C569        C  0.18992026  0.99314198  0.34771232     0.00000
C570        C  0.16244874  0.97838276  0.33322446    -0.08500
C571        C  0.13459578  0.97688888  0.35600836    -0.05900
C572        C  0.13374298  0.98811157  0.39290177     0.00000
C573        C  0.16126283  0.00166228  0.40777039    -0.08400
C574        C  0.16159183  0.01398877  0.44759484     0.61900
H575        H  0.20882551  0.01595984  0.39577720     0.12600
H576        H  0.11315340  0.46660595  0.34526131     0.12600
C577        C  0.16222019  0.96364228  0.29445221     0.62200
F578        F  0.18960500  0.02891472  0.45565420    -0.23000
F579        F  0.16044207  0.98771064  0.47185607    -0.20300
F580        F  0.13474868  0.53700264  0.45345567    -0.20000
F581        F  0.18984265  0.94148840  0.28955617    -0.20100
F582        F  0.16146715  0.48842837  0.26810244    -0.20400
F583        F  0.13514562  0.44660002  0.28857324    -0.23000
C584        C  0.36859696  0.01740878  0.14346360    -0.05900
C585        C  0.36927570  0.00439089  0.10737470     0.00000
C586        C  0.34132210  0.49116010  0.09315365    -0.08500
C587        C  0.31394729  0.49001492  0.11633376    -0.05900
C588        C  0.31259677  0.00358530  0.15242092     0.00000
C589        C  0.34036548  0.01832872  0.16595605    -0.08400
C590        C  0.34019705  0.03617339  0.20302687     0.61900
H591        H  0.39032611  0.02758847  0.15359749     0.12600
H592        H  0.29314048  0.47844326  0.10608072     0.12600
C593        C  0.34057568  0.47804041  0.05370426     0.62200
F594        F  0.36784514  0.05257566  0.20778315    -0.23000
F595        F  0.33945366  0.01376573  0.23190437    -0.20300
F596        F  0.31313000  0.55945972  0.20490884    -0.20000
F597        F  0.36668147  0.95404606  0.04840789    -0.20100
F598        F  0.34274122  0.50366307  0.02877936    -0.20400
F599        F  0.31189829  0.46411759  0.04607513    -0.23000
C600        C  0.16724406  0.98343521  0.16483163    -0.05900
C601        C  0.19276627  0.99894176  0.14843255     0.00000
C602        C  0.18832057  0.01126300  0.11126747    -0.08500
C603        C  0.15923835  0.00640675  0.09198414    -0.05900
C604        C  0.13416894  0.99085531  0.10844825     0.00000
C605        C  0.13794937  0.97920359  0.14552750    -0.08400
C606        C  0.11174058  0.96125275  0.16415710     0.61900
H607        H  0.17061132  0.97401669  0.19291042     0.12600
H608        H  0.15568037  0.51490383  0.06353185     0.12600
C609        C  0.21348218  0.02979686  0.09140499     0.62200
F610        F  0.12164358  0.44915830  0.19891380    -0.23000
F611        F  0.10468512  0.43487096  0.14251284    -0.20300
F612        F  0.08356405  0.98264050  0.16868366    -0.20000
F613        F  0.24011043  0.50792733  0.08162531    -0.20100
F614        F  0.22348608  0.05427938  0.11408441    -0.20400
F615        F  0.20087191  0.04492579  0.05908922    -0.23000
C616        C  0.10467303  0.98697692  0.58560407     0.42400
N617        N  0.05458946  0.98981087  0.56753797     0.01200
C618        C  0.49194644  0.92644889  0.90647953    -0.06600
H619        H  0.06199095  0.51266914  0.87744180     0.06700
C620        C  0.48021172  0.59758938  0.95317969    -0.07000
Co621      Co  0.04631756  0.95062965  0.99854001     0.74200
N622        N  0.05073030  0.99268283  0.93099680    -0.26200
Co623      Co  0.49962395  0.49733803  0.93280476     0.74100
C624        C  0.99726423  0.59913862  0.91749362     0.42500
N625        N  0.48409525  0.56329254  0.54452920     0.00900
N626        N  0.49759526  0.54847370  0.93478061     0.01000
N627        N  0.02347753  0.89647144  0.94875603    -0.47000
H628        H  0.12256503  0.95727723  0.53386132     0.06700
N629        N  0.06890129  0.97601725  0.95662787     0.01200
N630        N  0.44836690  0.50154091  0.93487821     0.01000
C631        C  0.39782181  0.50635264  0.91631591     0.42600
N632        N  0.50129321  0.54497488  0.56946596    -0.25600
C633        C  0.02524718  0.89407134  0.54879436    -0.06500
N634        N  0.07371718  0.49806046  0.59503072    -0.46700
N635        N  0.42868137  0.99397771  0.90756247    -0.46900
C636        C  0.50790122  0.89221170  0.58413080     0.42400
N637        N  0.02032184  0.92828254  0.95718361     0.01200
N638        N  0.45247387  0.49878235  0.57010998    -0.25600
N639        N  0.07106077  0.97356997  0.54066391    -0.26100
N640        N  0.43470189  0.51619181  0.54473905     0.00900
H641        H  0.44042465  0.97756125  0.62275165     0.06800
H642        H  0.38207195  0.53812020  0.96779983     0.06800
N643        N  0.00236391  0.94630583  0.93253882    -0.26200
N644        N  0.48147014  0.56533314  0.96136993    -0.25800
N645        N  0.00581619  0.94285465  0.56651801     0.01200
C646        C  0.10307223  0.98719510  0.91446766     0.42600
C647        C  0.01268115  0.56465067  0.59506506    -0.07000
N648        N  0.43248329  0.51890964  0.96125593    -0.25800
H649        H  0.46711547  0.61714230  0.96916121     0.06800
N650        N  0.10041099  0.97191764  0.94760616    -0.47000
H651        H  0.02633984  0.55592876  0.61957527     0.06800
C652        C  0.39990701  0.50403640  0.58564210     0.42500
C653        C  0.10314860  0.97098808  0.54935780    -0.06500
Co654      Co  0.00357802  0.99398097  0.56890487     0.73800
N655        N  0.48253861  0.59518967  0.55225541    -0.46700
C656        C  0.50579721  0.89326249  0.91741836     0.42700
N657        N  0.49706507  0.92349866  0.59349504    -0.46700
Co658      Co  0.45770221  0.54142235  0.50314494     0.73900
C659        C  0.40049496  0.52304486  0.95229072    -0.07100
C660        C  0.07016828  0.50064378  0.90320899    -0.06600
N661        N  0.02281901  0.92632313  0.54028272    -0.26100
N662        N  0.00692478  0.56762191  0.90794089    -0.46900
H663        H  0.47839184  0.93464249  0.88168057     0.06700
C664        C  0.43264235  0.99020225  0.59720812    -0.07000
Cl665      Cl  0.00180364  0.49582325  0.50083927    -0.50000
C666        C  0.00024759  0.59827569  0.58363583     0.42500
H667        H  0.03925922  0.87471155  0.53337736     0.06700
N668        N  0.40309094  0.52025959  0.55322733    -0.46700
C669        C  0.00878413  0.77390756  0.67345752     0.80100
N670        N  0.00811651  0.74515069  0.65482346    -0.78200
C671        C  0.00595716  0.71632808  0.67322830     0.82600
N672        N  0.00396679  0.71662600  0.71089511    -0.78100
C673        C  0.00465164  0.74533098  0.72994189     0.82700
N674        N  0.00680304  0.77403628  0.71109388    -0.79900
C675        C  0.00385323  0.77500764  0.82704630     0.80100
N676        N  0.00137227  0.74634795  0.84570815    -0.78200
C677        C  0.99962233  0.71745505  0.82763285     0.82600
N678        N  0.00099276  0.71691447  0.78991194    -0.78100
C679        C  0.00345735  0.74538863  0.77070580     0.82700
N680        N  0.00495558  0.77414177  0.78940613    -0.79900
C681        C  0.22341256  0.00116454  0.67090502     0.80100
N682        N  0.22267386  0.00104181  0.70883902    -0.78200
C683        C  0.25077901  0.00206937  0.72907471     0.82600
N684        N  0.27980045  0.00304750  0.71103677    -0.78100
C685        C  0.28100636  0.00313925  0.67323948     0.82700
N686        N  0.25269946  0.00181143  0.65375928    -0.79900
C687        C  0.22100838  0.99678059  0.82660009     0.80100
N688        N  0.22168261  0.99796840  0.78873908    -0.78200
C689        C  0.25003838  0.00171806  0.77034066     0.82600
N690        N  0.27792030  0.00484842  0.79020602    -0.78100
C691        C  0.27762030  0.00450309  0.82806126     0.82700
N692        N  0.24922448  0.00009104  0.84582779    -0.79900
C693        C  0.01834633  0.65865722  0.84031330    -0.05900
C694        C  0.99723581  0.68683263  0.84926406     0.00000
C695        C  0.47492328  0.68545891  0.87897850    -0.08500
C696        C  0.47614161  0.65644922  0.90034687    -0.05900
C697        C  0.99800082  0.62840910  0.89250357     0.00000
C698        C  0.01904377  0.62916595  0.86113711    -0.08400
C699        C  0.04232772  0.59947774  0.84937942     0.61900
H700        H  0.03471536  0.66017293  0.81699345     0.12600
H701        H  0.45944410  0.65562408  0.92334514     0.12600
C702        C  0.44886937  0.71387801  0.88736970     0.62200
F703        F  0.06172184  0.60678142  0.81970168    -0.23000
F704        F  0.02455441  0.57409144  0.83834910    -0.20300
F705        F  0.06296838  0.58900545  0.87860031    -0.20000
F706        F  0.43275960  0.72451385  0.85490795    -0.20100
F707        F  0.46311681  0.73979127  0.90323676    -0.20400
F708        F  0.42558818  0.70455698  0.91189014    -0.23000
C709        C  0.00261526  0.86607023  0.85623784    -0.05900
C710        C  0.00615447  0.86268544  0.89495966     0.00000
C711        C  0.50951139  0.83069057  0.91097080    -0.08500
C712        C  0.50929301  0.80328178  0.88741773    -0.05900
C713        C  0.00523200  0.80636823  0.84852097     0.00000
C714        C  0.00198083  0.83869205  0.83249347    -0.08400
C715        C  0.99767569  0.84510816  0.79090569     0.61900
H716        H  0.00068386  0.89066653  0.84443423     0.12600
H717        H  0.51258586  0.77888420  0.89973238     0.12600
C718        C  0.51285977  0.82510851  0.95272778     0.62200
F719        F  0.99390403  0.87853360  0.78244262    -0.23000
F720        F  0.96995276  0.83196104  0.77810930    -0.20300
F721        F  0.02504553  0.83121279  0.77212374    -0.20000
F722        F  0.48814456  0.84425090  0.97108039    -0.20100
F723        F  0.54305007  0.83329863  0.96473986    -0.20400
F724        F  0.51064542  0.79245949  0.96245194    -0.22700
C725        C  0.98982101  0.68833921  0.61632084    -0.05900
C726        C  0.00483526  0.68545520  0.65154854     0.00000
C727        C  0.51945684  0.65411724  0.66370946    -0.08500
C728        C  0.51774942  0.62678082  0.64024050    -0.05900
C729        C  0.00196113  0.62936650  0.60527658     0.00000
C730        C  0.98808207  0.66105771  0.59278256    -0.08400
C731        C  0.97140171  0.66675010  0.55505511     0.61900
H732        H  0.97886935  0.71247756  0.60743772     0.12600
H733        H  0.52856123  0.60291866  0.64976578     0.12600
C734        C  0.53708660  0.64914625  0.70097754     0.62200
F735        F  0.96196498  0.69990812  0.54815899    -0.23000
F736        F  0.94344445  0.65050236  0.55360883    -0.20300
F737        F  0.99273439  0.65544800  0.52713692    -0.20000
F738        F  0.51451326  0.65291285  0.72946472    -0.20100
F739        F  0.55973126  0.67182678  0.70502873    -0.20400
F740        F  0.55386526  0.61790021  0.70428812    -0.23000
C741        C  0.48520281  0.83048066  0.65754379    -0.05900
C742        C  0.01037806  0.80487596  0.65254336     0.00000
C743        C  0.03570661  0.80876234  0.62690333    -0.08500
C744        C  0.03404198  0.83786489  0.60561688    -0.05900
C745        C  0.00811152  0.86311339  0.60925233     0.00000
C746        C  0.48343487  0.85971773  0.63623842    -0.08400
C747        C  0.45486480  0.88612649  0.64213097     0.61900
H748        H  0.46641032  0.82695489  0.67778048     0.12600
H749        H  0.05321306  0.84094558  0.58578597     0.12600
C750        C  0.06470840  0.78258365  0.62245079     0.62200
F751        F  0.43208601  0.87584471  0.66669593    -0.23000
F752        F  0.43893525  0.89369567  0.60869804    -0.20300
F753        F  0.46620814  0.91422825  0.65671462    -0.20000
F754        F  0.05468802  0.75510297  0.60501814    -0.20100
F755        F  0.07786970  0.77352910  0.65695523    -0.20400
F756        F  0.08932037  0.79395407  0.60128921    -0.23000
C757        C  0.33781206  0.49077858  0.83657322    -0.05900
C758        C  0.30841778  0.00743026  0.84974945     0.00000
C759        C  0.30927373  0.02570890  0.88322970    -0.08500
C760        C  0.33866395  0.02400076  0.90389442    -0.05900
C761        C  0.36799610  0.00644788  0.89161697     0.00000
C762        C  0.36771923  0.49018953  0.85647737    -0.08400
C763        C  0.39838825  0.47208307  0.83958706     0.61900
H764        H  0.33697467  0.47753153  0.81059108     0.12600
H765        H  0.33848235  0.03670571  0.93020589     0.12600
C766        C  0.27965731  0.04706775  0.89805667     0.62200
F767        F  0.39217333  0.45847431  0.80536279    -0.23000
F768        F  0.41080874  0.94665036  0.86272630    -0.20300
F769        F  0.42164854  0.49389387  0.83420640    -0.20000
F770        F  0.26078015  0.02756010  0.91851535    -0.20100
F771        F  0.26118082  0.06245163  0.86940819    -0.20400
F772        F  0.28900426  0.07170921  0.92105295    -0.23000
C773        C  0.18843122  0.00445845  0.88473588    -0.05900
C774        C  0.18991420  0.99314648  0.84770883     0.00000
C775        C  0.16244732  0.97837845  0.83322333    -0.08500
C776        C  0.13459388  0.97688354  0.85600620    -0.05900
C777        C  0.13373701  0.98811403  0.89289664     0.00000
C778        C  0.16125149  0.00167652  0.90776187    -0.08400
C779        C  0.16157609  0.01401041  0.94758348     0.61900
H780        H  0.20880644  0.01599173  0.89576218     0.12600
H781        H  0.11315192  0.46661232  0.84525916     0.12600
C782        C  0.16222417  0.96363130  0.79445415     0.62200
F783        F  0.18958519  0.02894396  0.95564042    -0.23000
F784        F  0.16043098  0.98773553  0.97185031    -0.20300
F785        F  0.13475860  0.53699186  0.95346542    -0.20000
F786        F  0.18985013  0.94148079  0.78956464    -0.20100
F787        F  0.16146486  0.48843922  0.76810220    -0.20400
F788        F  0.13514080  0.44661085  0.78856810    -0.23000
C789        C  0.36859758  0.01740988  0.64346495    -0.05900
C790        C  0.36927534  0.00439133  0.60737637     0.00000
C791        C  0.34132373  0.49115330  0.59315373    -0.08500
C792        C  0.31394831  0.49001008  0.61633348    -0.05900
C793        C  0.31259717  0.00358795  0.65242394     0.00000
C794        C  0.34036653  0.01833073  0.66595816    -0.08400
C795        C  0.34019933  0.03617549  0.70302882     0.61900
H796        H  0.39032716  0.02758931  0.65359796     0.12600
H797        H  0.29314189  0.47843697  0.60608167     0.12600
C798        C  0.34057950  0.47802757  0.55370684     0.62200
F799        F  0.36784826  0.05257658  0.70778448    -0.23000
F800        F  0.33945545  0.01376805  0.73190645    -0.20300
F801        F  0.31312639  0.55946419  0.70489935    -0.20000
F802        F  0.36667963  0.95404488  0.54841164    -0.20100
F803        F  0.34274494  0.50364663  0.52877715    -0.20400
F804        F  0.31190323  0.46410213  0.54607950    -0.23000
C805        C  0.16724640  0.98343462  0.66483442    -0.05900
C806        C  0.19276709  0.99894372  0.64843571     0.00000
C807        C  0.18832042  0.01126530  0.61127091    -0.08500
C808        C  0.15923844  0.00640767  0.59198774    -0.05900
C809        C  0.13417042  0.99085391  0.60845160     0.00000
C810        C  0.13795215  0.97920114  0.64553032    -0.08400
C811        C  0.11174526  0.96124724  0.66415930     0.61900
H812        H  0.17061463  0.97401543  0.69291281     0.12600
H813        H  0.15567914  0.51490542  0.56353186     0.12600
C814        C  0.21348095  0.02980057  0.59140849     0.62200
F815        F  0.12164204  0.44916156  0.69891489    -0.23000
F816        F  0.10468320  0.43487358  0.64251431    -0.20300
F817        F  0.08356741  0.98263276  0.66868744    -0.20000
F818        F  0.24010974  0.50792690  0.58162426    -0.20100
F819        F  0.22348402  0.05428330  0.61408818    -0.20400
F820        F  0.20086982  0.04492940  0.55909305    -0.23000
C821        C  0.60466200  0.48697383  0.08561554     0.42400
N822        N  0.55458096  0.48981098  0.06754236     0.01200
C823        C  0.99196034  0.42645563  0.40646776    -0.06600
H824        H  0.56196328  0.01266077  0.37743165     0.06700
C825        C  0.98020818  0.09759044  0.45318566    -0.07000
Co826      Co  0.54632298  0.45062987  0.49854184     0.74200
N827        N  0.55075183  0.49268584  0.43100396    -0.26200
Co828      Co  0.99961207  0.99733568  0.43280895     0.74100
C829        C  0.49725771  0.09913492  0.41749223     0.42500
N830        N  0.98409191  0.06329314  0.04453025     0.00900
N831        N  0.99758249  0.04847342  0.43478166     0.01000
N832        N  0.52348857  0.39647515  0.44874615    -0.47000
H833        H  0.62255934  0.45727603  0.03387386     0.06700
N834        N  0.56891714  0.47601876  0.45663861     0.01200
N835        N  0.94835585  0.00153614  0.43488980     0.01000
C836        C  0.89781140  0.00636231  0.41632469     0.42600
N837        N  0.00129889  0.04497588  0.06946012    -0.25600
C838        C  0.52524883  0.39407249  0.04879124    -0.06500
N839        N  0.57372928  0.99805956  0.09502280    -0.46700
N840        N  0.92869392  0.49398137  0.40755019    -0.46900
C841        C  0.00790396  0.39220923  0.08412360     0.42400
N842        N  0.52033413  0.42828578  0.45717585     0.01200
N843        N  0.95247935  0.99878278  0.07011946    -0.25600
N844        N  0.57105508  0.47357047  0.04066988    -0.26100
N845        N  0.93470303  0.01618984  0.04475001     0.00900
H846        H  0.94041302  0.47755988  0.12274062     0.06800
H847        H  0.88207072  0.03814236  0.46780231     0.06800
N848        N  0.50238079  0.44631116  0.43252913    -0.26200
N849        N  0.98146211  0.06533373  0.46137380    -0.25800
N850        N  0.50580907  0.44285429  0.06651158     0.01200
C851        C  0.60309930  0.48719880  0.41449039     0.42600
C852        C  0.51271330  0.06464841  0.09504648    -0.07000
N853        N  0.93247587  0.01891007  0.46126596    -0.25800
H854        H  0.96711786  0.11714458  0.46917094     0.06800
N855        N  0.60042919  0.47191887  0.44762598    -0.47000
H856        H  0.52639122  0.05592640  0.11954368     0.06800
C857        C  0.89991398  0.00402936  0.08565641     0.42500
C858        C  0.60314154  0.47098692  0.04936831    -0.06500
Co859      Co  0.50356992  0.49398083  0.06890316     0.73800
N860        N  0.98253825  0.09519044  0.05225514    -0.46700
C861        C  0.00581100  0.39326872  0.41740590     0.42700
N862        N  0.99706254  0.42349510  0.09348682    -0.46700
Co863      Co  0.95769467  0.04142171  0.00315103     0.73900
C864        C  0.90048851  0.02305530  0.45229849    -0.07100
C865        C  0.57014526  0.00063643  0.40319780    -0.06600
N866        N  0.52281560  0.42632402  0.04027800    -0.26100
N867        N  0.50691102  0.06761682  0.40793731    -0.46900
H868        H  0.97840790  0.43465046  0.38166769     0.06700
C869        C  0.93263364  0.49020166  0.09719661    -0.07000
Cl870      Cl  0.50180307  0.99582051  0.00084195    -0.50000
C871        C  0.50027742  0.09827348  0.08362166     0.42500
H872        H  0.53926668  0.37471441  0.03337755     0.06700
N873        N  0.90309277  0.02025293  0.05324111    -0.46700
C874        C  0.50880422  0.27390819  0.17345522     0.80100
N875        N  0.50814410  0.24515171  0.15481895    -0.78200
C876        C  0.50598305  0.21632707  0.17321950     0.82600
N877        N  0.50398537  0.21662438  0.21088637    -0.78100
C878        C  0.50466599  0.24532850  0.22993617     0.82700
N879        N  0.50681729  0.27403500  0.21109082    -0.79900
C880        C  0.50386568  0.27500824  0.32703898     0.80100
N881        N  0.50138596  0.24634948  0.34570323    -0.78200
C882        C  0.49963689  0.21745476  0.32763099     0.82600
N883        N  0.50100694  0.21691201  0.28990937    -0.78100
C884        C  0.50347062  0.24538566  0.27070077     0.82700
N885        N  0.50496844  0.27413995  0.28939913    -0.79900
C886        C  0.72340897  0.50114605  0.17090612     0.80100
N887        N  0.72267447  0.50102022  0.20884065    -0.78200
C888        C  0.75078240  0.50204501  0.22907198     0.82600
N889        N  0.77980130  0.50302520  0.21102941    -0.78100
C890        C  0.78100324  0.50312068  0.17323228     0.82700
N891        N  0.75269408  0.50179423  0.15375631    -0.79900
C892        C  0.72103525  0.49676831  0.32661194     0.80100
N893        N  0.72169921  0.49794777  0.28874919    -0.78200
C894        C  0.75004982  0.50169545  0.27033829     0.82600
N895        N  0.77793726  0.50482694  0.29019172    -0.78100
C896        C  0.77764525  0.50449326  0.32804586     0.82700
N897        N  0.74925458  0.50009151  0.34582786    -0.79900
C898        C  0.51834694  0.15865121  0.34030907    -0.05900
C899        C  0.49724840  0.18683351  0.34926683     0.00000
C900        C  0.97493530  0.18546700  0.37898908    -0.08500
C901        C  0.97615115  0.15645753  0.40035870    -0.05900
C902        C  0.49800290  0.12840797  0.39250563     0.00000
C903        C  0.51903892  0.12915942  0.36113220    -0.08400
C904        C  0.54230915  0.09946415  0.34936536     0.61900
H905        H  0.53471024  0.16016117  0.31698296     0.12600
H906        H  0.95945744  0.15563627  0.42336115     0.12600
C907        C  0.94888782  0.21389073  0.38738545     0.62200
F908        F  0.56169996  0.10676217  0.31968245    -0.23000
F909        F  0.52452217  0.07408715  0.33833843    -0.20300
F910        F  0.56295348  0.08898156  0.37857936    -0.20000
F911        F  0.93277336  0.22452856  0.35492720    -0.20100
F912        F  0.96314320  0.23980125  0.40324770    -0.20400
F913        F  0.92560918  0.20457488  0.41191234    -0.23000
C914        C  0.50261203  0.36607391  0.35622587    -0.05900
C915        C  0.50616614  0.36269040  0.39494667     0.00000
C916        C  0.00953550  0.33069545  0.41095889    -0.08500
C917        C  0.00931749  0.30328587  0.38740695    -0.05900
C918        C  0.50524336  0.30637057  0.34851081     0.00000
C919        C  0.50197518  0.33869446  0.33248332    -0.08400
C920        C  0.49764821  0.34510902  0.29089758     0.61900
H921        H  0.50067036  0.39066998  0.34442111     0.12600
H922        H  0.01261943  0.27888830  0.39972105     0.12600
C923        C  0.01289438  0.32511312  0.45271498     0.62200
F924        F  0.49385459  0.37853446  0.28243517    -0.23000
F925        F  0.46992850  0.33194579  0.27811787    -0.20300
F926        F  0.52501540  0.33122811  0.27210026    -0.20000
F927        F  0.98817865  0.34424886  0.47107433    -0.20100
F928        F  0.04308434  0.33331097  0.46471871    -0.20400
F929        F  0.01069072  0.29246242  0.46243993    -0.22700
C930        C  0.48993333  0.18834835  0.11626261    -0.05900
C931        C  0.50486967  0.18545319  0.15153371     0.00000
C932        C  0.01943698  0.15410609  0.16372131    -0.08500
C933        C  0.01772510  0.12676969  0.14025400    -0.05900
C934        C  0.50199808  0.12936213  0.10526233     0.00000
C935        C  0.48820379  0.16106694  0.09272173    -0.08400
C936        C  0.47162718  0.16677320  0.05493913     0.61900
H937        H  0.47903381  0.21249525  0.10734417     0.12600
H938        H  0.02849609  0.10289967  0.14980107     0.12600
C939        C  0.03702800  0.14912237  0.20101112     0.62200
F940        F  0.46230379  0.19994323  0.04798767    -0.23000
F941        F  0.44361640  0.15061374  0.05342040    -0.20300
F942        F  0.49300054  0.15538359  0.02709549    -0.20000
F943        F  0.01442866  0.15291291  0.22947034    -0.20100
F944        F  0.05969347  0.17177838  0.20508981    -0.20400
F945        F  0.05377595  0.11786368  0.20434236    -0.23000
C946        C  0.98522027  0.33047722  0.15754314    -0.05900
C947        C  0.51039476  0.30487818  0.15254365     0.00000
C948        C  0.53572560  0.30877077  0.12690877    -0.08500
C949        C  0.53405661  0.33787316  0.10562173    -0.05900
C950        C  0.50811848  0.36311453  0.10925056     0.00000
C951        C  0.98344644  0.35971322  0.13623556    -0.08400
C952        C  0.95487164  0.38611700  0.14212666     0.61900
H953        H  0.96642951  0.32694932  0.17778123     0.12600
H954        H  0.55322934  0.34095869  0.08579444     0.12600
C955        C  0.56473291  0.28259783  0.12246062     0.62200
F956        F  0.93209774  0.37583338  0.16669657    -0.23000
F957        F  0.93893823  0.39367753  0.10869406    -0.20300
F958        F  0.96620909  0.41422432  0.15670340    -0.20000
F959        F  0.55472131  0.25511608  0.10502176    -0.20100
F960        F  0.57788909  0.27354269  0.15696723    -0.20400
F961        F  0.58934621  0.29397532  0.10130709    -0.23000
C962        C  0.83781249  0.99087848  0.33653630    -0.05900
C963        C  0.80844531  0.50741862  0.34971910     0.00000
C964        C  0.80932798  0.52582039  0.38310629    -0.08500
C965        C  0.83871179  0.52411928  0.40378335    -0.05900
C966        C  0.86801076  0.50643519  0.39160110     0.00000
C967        C  0.86772312  0.99029590  0.35643331    -0.08400
C968        C  0.89841596  0.97230272  0.33947020     0.61900
H969        H  0.83699250  0.97769516  0.31051071     0.12600
H970        H  0.83855395  0.53693975  0.43002184     0.12600
C971        C  0.77974570  0.54731518  0.39780399     0.62200
F972        F  0.89222291  0.95880802  0.30517878    -0.23000
F973        F  0.91070840  0.44644235  0.36305326    -0.20300
F974        F  0.92163515  0.99417714  0.33420220    -0.20000
F975        F  0.76078689  0.52795249  0.41834619    -0.20100
F976        F  0.76133093  0.56262339  0.36906325    -0.20400
F977        F  0.78914039  0.57201880  0.42067890    -0.23000
C978        C  0.68847249  0.50443090  0.38476335    -0.05900
C979        C  0.68994935  0.49312370  0.34773355     0.00000
C980        C  0.66248479  0.47834649  0.33325632    -0.08500
C981        C  0.63462933  0.47686081  0.35603806    -0.05900
C982        C  0.63376848  0.48810634  0.39292244     0.00000
C983        C  0.66128635  0.50166486  0.40778617    -0.08400
C984        C  0.66160651  0.51401366  0.44760179     0.61900
H985        H  0.70885908  0.51594381  0.39579637     0.12600
H986        H  0.61311741  0.96664486  0.34522546     0.12600
C987        C  0.66226981  0.46357174  0.29450025     0.62200
F988        F  0.68961871  0.52894275  0.45565699    -0.23000
F989        F  0.66044891  0.48774971  0.47188101    -0.20300
F990        F  0.63474156  0.03695890  0.45348034    -0.20000
F991        F  0.68990852  0.44143481  0.28962603    -0.20100
F992        F  0.66144031  0.98851747  0.26808305    -0.20400
F993        F  0.63508256  0.94669750  0.28850471    -0.23000
C994        C  0.86859276  0.51739950  0.14345638    -0.05900
C995        C  0.86926654  0.50439581  0.10736089     0.00000
C996        C  0.84133589  0.99113482  0.09317382    -0.08500
C997        C  0.81395756  0.99000029  0.11635055    -0.05900
C998        C  0.81259165  0.50357786  0.15241276     0.00000
C999        C  0.84036309  0.51831472  0.16595137    -0.08400
C1000       C  0.84020054  0.53614601  0.20303012     0.61900
H1001       H  0.89032479  0.52757137  0.15359424     0.12600
H1002       H  0.79315053  0.97842693  0.10609986     0.12600
C1003       C  0.84059813  0.97799148  0.05373412     0.62200
F1004       F  0.86784940  0.55254650  0.20778922    -0.23000
F1005       F  0.83946155  0.51372778  0.23189783    -0.20300
F1006       F  0.81313015  0.05947894  0.20489450    -0.20000
F1007       F  0.86664998  0.45408007  0.04836119    -0.20100
F1008       F  0.84275736  0.00360129  0.02879059    -0.20400
F1009       F  0.81192770  0.96405303  0.04611408    -0.23000
C1010       C  0.66723368  0.48343557  0.16484601    -0.05900
C1011       C  0.69276028  0.49893118  0.14844022     0.00000
C1012       C  0.68831592  0.51124474  0.11127149    -0.08500
C1013       C  0.65923062  0.50639299  0.09199314    -0.05900
C1014       C  0.63415809  0.49085144  0.10846334     0.00000
C1015       C  0.63793685  0.47920640  0.14554499    -0.08400
C1016       C  0.61172494  0.46126293  0.16417908     0.61900
H1017       H  0.67059963  0.47402197  0.19292684     0.12600
H1018       H  0.65568631  0.01492248  0.06352975     0.12600
C1019       C  0.71348337  0.52976173  0.09139662     0.62200
F1020       F  0.62166564  0.94913181  0.19888923    -0.23000
F1021       F  0.60470590  0.93485799  0.14248394    -0.20300
F1022       F  0.58355003  0.48265441  0.16869887    -0.20000
F1023       F  0.74011701  0.00797056  0.08162925    -0.20100
F1024       F  0.72349775  0.55424853  0.11406226    -0.20400
F1025       F  0.70087654  0.54488218  0.05907471    -0.23000
C1026       C  0.60466289  0.48697229  0.58561686     0.42400
N1027       N  0.55458202  0.48980960  0.56754270     0.01200
C1028       C  0.99196025  0.42645639  0.90646654    -0.06600
H1029       H  0.56196889  0.01266279  0.87743495     0.06700
C1030       C  0.98020221  0.09758929  0.95318193    -0.07000
Co1031     Co  0.54632132  0.45063032  0.99854245     0.74200
N1032       N  0.55074798  0.49268494  0.93100335    -0.26200
Co1033     Co  0.99960786  0.99733460  0.93280758     0.74100
C1034       C  0.49726213  0.09913618  0.91749502     0.42500
N1035       N  0.98409382  0.06329280  0.54453277     0.00900
N1036       N  0.99757759  0.04847233  0.93477888     0.01000
N1037       N  0.52348888  0.39647461  0.94874781    -0.47000
H1038       H  0.62256087  0.45727473  0.53387522     0.06700
N1039       N  0.56891426  0.47601862  0.95663774     0.01200
N1040       N  0.94835190  0.00153492  0.93488963     0.01000
C1041       C  0.89780754  0.00636039  0.91632434     0.42600
N1042       N  0.00130262  0.04497509  0.56946079    -0.25600
C1043       C  0.52524941  0.39407133  0.54878901    -0.06500
N1044       N  0.57372815  0.99806109  0.59502009    -0.46700
N1045       N  0.92869471  0.49398069  0.90755094    -0.46900
C1046       C  0.00790243  0.39221081  0.58412341     0.42400
N1047       N  0.52033220  0.42828513  0.95717791     0.01200
N1048       N  0.95248048  0.99878340  0.57011964    -0.25600
N1049       N  0.57105645  0.47356905  0.54067048    -0.26100
N1050       N  0.93470482  0.01619042  0.54474964     0.00900
H1051       H  0.94041208  0.47756333  0.62274310     0.06800
H1052       H  0.88206542  0.03813819  0.96780304     0.06800
N1053       N  0.50237821  0.44630975  0.93253110    -0.26200
N1054       N  0.98145749  0.06533273  0.96137115    -0.25800
N1055       N  0.50581008  0.44285298  0.56651024     0.01200
C1056       C  0.60309414  0.48719828  0.91448738     0.42600
C1057       C  0.51270474  0.06464968  0.59504918    -0.07000
N1058       N  0.93247172  0.01890845  0.96126599    -0.25800
H1059       H  0.96711150  0.11714324  0.96916705     0.06800
N1060       N  0.60042598  0.47191905  0.94762372    -0.47000
H1061       H  0.52637725  0.05592786  0.61955010     0.06800
C1062       C  0.89991441  0.00402987  0.58565457     0.42500
C1063       C  0.60314284  0.47098540  0.54936952    -0.06500
Co1064     Co  0.50357091  0.49397953  0.56890266     0.73800
N1065       N  0.98254327  0.09519019  0.55225612    -0.46700
C1066       C  0.00580959  0.39326899  0.91740414     0.42700
N1067       N  0.99706079  0.42349652  0.59348679    -0.46700
Co1068     Co  0.95769779  0.04142244  0.50315213     0.73900
C1069       C  0.90048410  0.02305290  0.95229856    -0.07100
C1070       C  0.57015019  0.00063795  0.90320105    -0.06600
N1071       N  0.52281642  0.42632299  0.54027633    -0.26100
N1072       N  0.50691519  0.06761812  0.90793968    -0.46900
H1073       H  0.97840764  0.43465203  0.88166691     0.06700
C1074       C  0.93263227  0.49020377  0.59719844    -0.07000
Cl1075     Cl  0.50180047  0.99582050  0.50084102    -0.50000
C1076       C  0.50026840  0.09827444  0.58362335     0.42500
H1077       H  0.53926723  0.37471350  0.53337492     0.06700
N1078       N  0.90309428  0.02025353  0.55323954    -0.46700
C1079       C  0.50880421  0.27390627  0.67345390     0.80100
N1080       N  0.50813964  0.24515002  0.65481820    -0.78200
C1081       C  0.50597837  0.21632621  0.67322013     0.82600
N1082       N  0.50398431  0.21662337  0.71088717    -0.78100
C1083       C  0.50466829  0.24532744  0.72993618     0.82700
N1084       N  0.50682032  0.27403344  0.71108988    -0.79900
C1085       C  0.50386974  0.27500767  0.82703889     0.80100
N1086       N  0.50138876  0.24634918  0.84570325    -0.78200
C1087       C  0.49963883  0.21745459  0.82763114     0.82600
N1088       N  0.50100915  0.21691161  0.78990959    -0.78100
C1089       C  0.50347384  0.24538500  0.77070082     0.82700
N1090       N  0.50497248  0.27413926  0.78939900    -0.79900
C1091       C  0.72340776  0.50115232  0.67090853     0.80100
N1092       N  0.72267309  0.50102688  0.70884295    -0.78200
C1093       C  0.75078066  0.50205294  0.72907471     0.82600
N1094       N  0.77979971  0.50303376  0.71103250    -0.78100
C1095       C  0.78100172  0.50312879  0.67323520     0.82700
N1096       N  0.75269284  0.50180116  0.65375900    -0.79900
C1097       C  0.72102851  0.49677007  0.82661083     0.80100
N1098       N  0.72169456  0.49795363  0.78874863    -0.78200
C1099       C  0.75004671  0.50170132  0.77034108     0.82600
N1100       N  0.77793324  0.50483033  0.79019780    -0.78100
C1101       C  0.77763956  0.50449135  0.82805239     0.82700
N1102       N  0.74924737  0.50008707  0.84582998    -0.79900
C1103       C  0.51835318  0.15865301  0.84031351    -0.05900
C1104       C  0.49725062  0.18683349  0.84926721     0.00000
C1105       C  0.97493066  0.18546756  0.87898868    -0.08500
C1106       C  0.97614617  0.15645746  0.90035708    -0.05900
C1107       C  0.49800687  0.12840907  0.89250814     0.00000
C1108       C  0.51904644  0.12916192  0.86113803    -0.08400
C1109       C  0.54232232  0.09946904  0.84937676     0.61900
H1110       H  0.53471882  0.16016402  0.81698973     0.12600
H1111       H  0.95945435  0.15563687  0.92336137     0.12600
C1112       C  0.94888628  0.21389286  0.88738982     0.62200
F1113       F  0.56171708  0.10676897  0.81969810    -0.23000
F1114       F  0.52454094  0.07408894  0.83834629    -0.20300
F1115       F  0.56296267  0.08898993  0.87859548    -0.20000
F1116       F  0.93277049  0.22453512  0.85493392    -0.20100
F1117       F  0.96314558  0.23980014  0.90325380    -0.20400
F1118       F  0.92560809  0.20457736  0.91191748    -0.23000
C1119       C  0.50261917  0.36607294  0.85622635    -0.05900
C1120       C  0.50617015  0.36268917  0.89494741     0.00000
C1121       C  0.00953003  0.33069581  0.91095698    -0.08500
C1122       C  0.00931031  0.30328639  0.88740502    -0.05900
C1123       C  0.50524857  0.30636978  0.84851082     0.00000
C1124       C  0.50198389  0.33869365  0.83248328    -0.08400
C1125       C  0.49766270  0.34510835  0.79089695     0.61900
H1126       H  0.50067869  0.39066913  0.84442195     0.12600
H1127       H  0.01261228  0.27888878  0.89971895     0.12600
C1128       C  0.01288948  0.32511330  0.95271296     0.62200
F1129       F  0.49387480  0.37853376  0.78243411    -0.23000
F1130       F  0.46994228  0.33194912  0.77811284    -0.20300
F1131       F  0.52503068  0.33122359  0.77210384    -0.20000
F1132       F  0.98817546  0.34425084  0.97107302    -0.20100
F1133       F  0.04308060  0.33330872  0.96471572    -0.20400
F1134       F  0.01068338  0.29246306  0.96243803    -0.22700
C1135       C  0.48989539  0.18834484  0.61628096    -0.05900
C1136       C  0.50486055  0.18545313  0.65153615     0.00000
C1137       C  0.01941632  0.15410131  0.66373397    -0.08500
C1138       C  0.01770560  0.12676395  0.64026784    -0.05900
C1139       C  0.50198673  0.12936361  0.60526410     0.00000
C1140       C  0.48816169  0.16106360  0.59274083    -0.08400
C1141       C  0.47154667  0.16676498  0.55497858     0.61900
H1142       H  0.47897717  0.21248885  0.60737569     0.12600
H1143       H  0.02845061  0.10288939  0.64983029     0.12600
C1144       C  0.03697795  0.14911139  0.70104061     0.62200
F1145       F  0.46218296  0.19993080  0.54804696    -0.23000
F1146       F  0.44355468  0.15057431  0.55348727    -0.20300
F1147       F  0.49290435  0.15540621  0.52710731    -0.20000
F1148       F  0.01435862  0.15291910  0.72947838    -0.20100
F1149       F  0.05965644  0.17175175  0.70513898    -0.20400
F1150       F  0.05370543  0.11784464  0.70438943    -0.23000
C1151       C  0.98521273  0.33047707  0.65753678    -0.05900
C1152       C  0.51039520  0.30487590  0.65254147     0.00000
C1153       C  0.53572352  0.30876633  0.62690253    -0.08500
C1154       C  0.53405462  0.33786879  0.60561554    -0.05900
C1155       C  0.50811916  0.36311250  0.60924830     0.00000
C1156       C  0.98343921  0.35971248  0.63622835    -0.08400
C1157       C  0.95485967  0.38611270  0.64211078     0.61900
H1158       H  0.96641884  0.32694739  0.67777041     0.12600
H1159       H  0.55322550  0.34095255  0.58578536     0.12600
C1160       C  0.56472833  0.28259117  0.62245015     0.62200
F1161       F  0.93208133  0.37582589  0.66667298    -0.23000
F1162       F  0.93893382  0.39367086  0.60867322    -0.20300
F1163       F  0.96618943  0.41422217  0.65669166    -0.20000
F1164       F  0.55471227  0.25511054  0.60501322    -0.20100
F1165       F  0.57788807  0.27353495  0.65695483    -0.20400
F1166       F  0.58934024  0.29396652  0.60129257    -0.23000
C1167       C  0.83780662  0.99084817  0.83654948    -0.05900
C1168       C  0.80843911  0.50741607  0.84973019     0.00000
C1169       C  0.80931399  0.52578009  0.88314603    -0.08500
C1170       C  0.83870053  0.52407839  0.90381767    -0.05900
C1171       C  0.86800950  0.50643426  0.89160596     0.00000
C1172       C  0.86771541  0.99026203  0.85645015    -0.08400
C1173       C  0.89839944  0.97222671  0.83951403     0.61900
H1174       H  0.83698032  0.97764096  0.81054012     0.12600
H1175       H  0.83853601  0.53686442  0.93007793     0.12600
C1176       C  0.77972032  0.54723020  0.89788633     0.62200
F1177       F  0.89219900  0.95869241  0.80524579    -0.23000
F1178       F  0.91073958  0.44649748  0.86296289    -0.20300
F1179       F  0.92163508  0.99407689  0.83420747    -0.20000
F1180       F  0.76078842  0.52781951  0.91840111    -0.20100
F1181       F  0.76128519  0.56256314  0.86917581    -0.20400
F1182       F  0.78909892  0.57191361  0.92080118    -0.23000
C1183       C  0.68845756  0.50445174  0.88475277    -0.05900
C1184       C  0.68994051  0.49313029  0.84772898     0.00000
C1185       C  0.66248035  0.47834428  0.83325488    -0.08500
C1186       C  0.63462571  0.47685597  0.85603721    -0.05900
C1187       C  0.63376204  0.48810877  0.89291882     0.00000
C1188       C  0.66127407  0.50168073  0.90777764    -0.08400
C1189       C  0.66159060  0.51403776  0.94759009     0.61900
H1190       H  0.70883627  0.51598187  0.89577781     0.12600
H1191       H  0.61311864  0.96665223  0.84522695     0.12600
C1192       C  0.66226852  0.46356604  0.79450048     0.62200
F1193       F  0.68959925  0.52897392  0.95564198    -0.23000
F1194       F  0.66043736  0.48777778  0.97187583    -0.20300
F1195       F  0.63475568  0.03694936  0.95349133    -0.20000
F1196       F  0.68990946  0.44143150  0.78962957    -0.20100
F1197       F  0.66144033  0.98852108  0.76808492    -0.20400
F1198       F  0.63508304  0.94670107  0.78850759    -0.23000
C1199       C  0.86859022  0.51740836  0.64345662    -0.05900
C1200       C  0.86926533  0.50439900  0.60736370     0.00000
C1201       C  0.84133496  0.99113783  0.59316945    -0.08500
C1202       C  0.81395620  0.99000304  0.61634560    -0.05900
C1203       C  0.81259010  0.50358481  0.65241556     0.00000
C1204       C  0.84036028  0.51832527  0.66595143    -0.08400
C1205       C  0.84019557  0.53616258  0.70302653     0.61900
H1206       H  0.89032129  0.52758329  0.65359243     0.12600
H1207       H  0.79314884  0.97843091  0.60609371     0.12600
C1208       C  0.84059693  0.97799687  0.55372872     0.62200
F1209       F  0.86784309  0.55256570  0.70778265    -0.23000
F1210       F  0.83945716  0.51374883  0.73189875    -0.20300
F1211       F  0.81312973  0.05947777  0.70489287    -0.20000
F1212       F  0.86665363  0.45407273  0.54837534    -0.20100
F1213       F  0.84275773  0.00360785  0.52878714    -0.20400
F1214       F  0.81192569  0.96406046  0.54610700    -0.23000
C1215       C  0.66723436  0.48343703  0.66484756    -0.05900
C1216       C  0.69275952  0.49893534  0.64844247     0.00000
C1217       C  0.68831436  0.51124948  0.61127413    -0.08500
C1218       C  0.65922992  0.50639543  0.59199516    -0.05900
C1219       C  0.63415874  0.49085130  0.60846468     0.00000
C1220       C  0.63793816  0.47920588  0.64554615    -0.08400
C1221       C  0.61172760  0.46126013  0.66417968     0.61900
H1222       H  0.67060099  0.47402297  0.69292811     0.12600
H1223       H  0.65568367  0.01492625  0.56352815     0.12600
C1224       C  0.71348003  0.52976978  0.59140062     0.62200
F1225       F  0.62166682  0.94912557  0.69888266    -0.23000
F1226       F  0.60470920  0.93485298  0.64247596    -0.20300
F1227       F  0.58355113  0.48264950  0.66869894    -0.20000
F1228       F  0.74011482  0.00797553  0.58162667    -0.20100
F1229       F  0.72349259  0.55425621  0.61406809    -0.20400
F1230       F  0.70087169  0.54489135  0.55907997    -0.23000
C1231       C  0.60467219  0.98698620  0.08559949     0.42400
N1232       N  0.55458808  0.98981461  0.06753598     0.01200
C1233       C  0.99195109  0.92645192  0.40647520    -0.06600
H1234       H  0.56200814  0.51266459  0.37744646     0.06700
C1235       C  0.98020045  0.59759145  0.45318387    -0.07000
Co1236     Co  0.54631588  0.95063149  0.49853990     0.74200
N1237       N  0.55072433  0.99268406  0.43099555    -0.26200
Co1238     Co  0.99961663  0.49734071  0.43280654     0.74100
C1239       C  0.49727538  0.59913725  0.41749256     0.42500
N1240       N  0.98408815  0.56329332  0.04453139     0.00900
N1241       N  0.99758479  0.54847639  0.43478358     0.01000
N1242       N  0.52347487  0.89647140  0.44875956    -0.47000
H1243       H  0.62256470  0.95728675  0.03385658     0.06700
N1244       N  0.56889707  0.97601924  0.45662563     0.01200
N1245       N  0.94836046  0.50154129  0.43488164     0.01000
C1246       C  0.89781540  0.50634425  0.41632097     0.42600
N1247       N  0.00128932  0.54497598  0.06946579    -0.25600
C1248       C  0.52525040  0.89407228  0.04879536    -0.06500
N1249       N  0.57371916  0.49805204  0.09503379    -0.46700
N1250       N  0.92868557  0.99397989  0.40755940    -0.46900
C1251       C  0.00789989  0.89221101  0.08413010     0.42400
N1252       N  0.52031913  0.92828278  0.45718579     0.01200
N1253       N  0.95247224  0.49877955  0.07011248    -0.25600
N1254       N  0.57105965  0.97357475  0.04066139    -0.26100
N1255       N  0.93469856  0.51618897  0.04474295     0.00900
H1256       H  0.94042577  0.97756855  0.12275270     0.06800
H1257       H  0.88205850  0.53810247  0.46780918     0.06800
N1258       N  0.50235949  0.94630508  0.43254164    -0.26200
N1259       N  0.98145866  0.56533488  0.46137298    -0.25800
N1260       N  0.50581771  0.94285496  0.06651933     0.01200
C1261       C  0.60306502  0.98719795  0.41446244     0.42600
C1262       C  0.51267934  0.56464955  0.09507064    -0.07000
N1263       N  0.93247483  0.51890679  0.46126034    -0.25800
H1264       H  0.96710470  0.61714402  0.46916637     0.06800
N1265       N  0.60040627  0.97192053  0.44760148    -0.47000
H1266       H  0.52632863  0.55592732  0.11958706     0.06800
C1267       C  0.89990458  0.50402350  0.08564183     0.42500
C1268       C  0.60314778  0.97099619  0.04935368    -0.06500
Co1269     Co  0.50357679  0.99398144  0.06890508     0.73800
N1270       N  0.98253234  0.59519055  0.05225701    -0.46700
C1271       C  0.00580002  0.89326505  0.41741343     0.42700
N1272       N  0.99706415  0.92349828  0.09349355    -0.46700
Co1273     Co  0.95769483  0.54142194  0.00314845     0.73900
C1274       C  0.90048557  0.52303551  0.45229666    -0.07100
C1275       C  0.57018203  0.50063866  0.40321451    -0.06600
N1276       N  0.52282102  0.92632415  0.04028390    -0.26100
N1277       N  0.50693615  0.56762055  0.40793978    -0.46900
H1278       H  0.97839824  0.93464693  0.38167562     0.06700
C1279       C  0.93264379  0.99020813  0.09720822    -0.07000
Cl1280     Cl  0.50180854  0.49582122  0.00083815    -0.50000
C1281       C  0.50024873  0.59827492  0.08363877     0.42500
H1282       H  0.53926256  0.87471274  0.03337809     0.06700
N1283       N  0.90308729  0.52025115  0.05322985    -0.46700
C1284       C  0.50878976  0.77390622  0.17345630     0.80100
N1285       N  0.50812037  0.74514935  0.15482244    -0.78200
C1286       C  0.50596395  0.71632687  0.17322859     0.82600
N1287       N  0.50397774  0.71662417  0.21089572    -0.78100
C1288       C  0.50466322  0.74532948  0.22994194     0.82700
N1289       N  0.50681218  0.77403489  0.21109306    -0.79900
C1290       C  0.50386051  0.77500657  0.32704704     0.80100
N1291       N  0.50137833  0.74634686  0.34570830    -0.78200
C1292       C  0.49962987  0.71745401  0.32763255     0.82600
N1293       N  0.50100288  0.71691348  0.28991182    -0.78100
C1294       C  0.50346875  0.74538755  0.27070604     0.82700
N1295       N  0.50496568  0.77414085  0.28940678    -0.79900
C1296       C  0.72341382  0.00116683  0.17090221     0.80100
N1297       N  0.72267456  0.00104410  0.20883626    -0.78200
C1298       C  0.75077931  0.00207105  0.22907311     0.82600
N1299       N  0.77980123  0.00304864  0.21103600    -0.78100
C1300       C  0.78100791  0.00314054  0.17323853     0.82700
N1301       N  0.75270128  0.00181323  0.15375741    -0.79900
C1302       C  0.72100175  0.99677958  0.32659475     0.80100
N1303       N  0.72167908  0.99796984  0.28873422    -0.78200
C1304       C  0.75003669  0.00171905  0.27033951     0.82600
N1305       N  0.77791712  0.00484888  0.29020879    -0.78100
C1306       C  0.77761498  0.00449968  0.32806470     0.82700
N1307       N  0.74921725  0.00008451  0.34582601    -0.79900
C1308       C  0.51835676  0.65865728  0.34031390    -0.05900
C1309       C  0.49724371  0.68683130  0.34926314     0.00000
C1310       C  0.97491956  0.68546443  0.37898684    -0.08500
C1311       C  0.97613739  0.65645493  0.40035549    -0.05900
C1312       C  0.49801074  0.62840766  0.39250241     0.00000
C1313       C  0.51905536  0.62916599  0.36113774    -0.08400
C1314       C  0.54234236  0.59947938  0.34938223     0.61900
H1315       H  0.53472703  0.66017417  0.31699540     0.12600
H1316       H  0.95944263  0.65563176  0.42335661     0.12600
C1317       C  0.94887028  0.71388639  0.38738333     0.62200
F1318       F  0.56173821  0.60678471  0.31970667    -0.23000
F1319       F  0.52457202  0.57409151  0.33834979    -0.20300
F1320       F  0.56298123  0.58900857  0.37860519    -0.20000
F1321       F  0.93275832  0.72452684  0.35492450    -0.20100
F1322       F  0.96312358  0.73979584  0.40325069    -0.20400
F1323       F  0.92558994  0.70456734  0.41190604    -0.23000
C1324       C  0.50260940  0.86606915  0.35624260    -0.05900
C1325       C  0.50615350  0.86268355  0.39496390     0.00000
C1326       C  0.00950748  0.83069395  0.41096760    -0.08500
C1327       C  0.00928656  0.80328502  0.38741558    -0.05900
C1328       C  0.50523751  0.80636685  0.34852278     0.00000
C1329       C  0.50197821  0.83869129  0.33249720    -0.08400
C1330       C  0.49766731  0.84510824  0.29091031     0.61900
H1331       H  0.50067164  0.89066593  0.34443991     0.12600
H1332       H  0.01257834  0.77888781  0.39973109     0.12600
C1333       C  0.01285601  0.82511247  0.45272463     0.62200
F1334       F  0.49388677  0.87853397  0.28244904    -0.23000
F1335       F  0.46994703  0.83195436  0.27811707    -0.20300
F1336       F  0.52503787  0.83122003  0.27212435    -0.20000
F1337       F  0.98814436  0.84425941  0.47107774    -0.20100
F1338       F  0.04304880  0.83329720  0.46473496    -0.20400
F1339       F  0.01063583  0.79246478  0.46245000    -0.22700
C1340       C  0.48979009  0.68833392  0.11634173    -0.05900
C1341       C  0.50483869  0.68545466  0.15155040     0.00000
C1342       C  0.01943407  0.65411346  0.16372009    -0.08500
C1343       C  0.01772875  0.62677737  0.14025023    -0.05900
C1344       C  0.50196106  0.62936681  0.10527867     0.00000
C1345       C  0.48804638  0.66105232  0.09280461    -0.08400
C1346       C  0.47132152  0.66673871  0.05510088     0.61900
H1347       H  0.47881586  0.71246857  0.10747408     0.12600
H1348       H  0.02852537  0.60291239  0.14978398     0.12600
C1349       C  0.03704245  0.64913705  0.20100042     0.62200
F1350       F  0.46183858  0.69989170  0.04822747    -0.23000
F1351       F  0.44338601  0.65045512  0.05368659    -0.20300
F1352       F  0.49263570  0.65547192  0.02715079    -0.20000
F1353       F  0.01445419  0.65291517  0.22947178    -0.20100
F1354       F  0.05969631  0.67180631  0.20506723    -0.20400
F1355       F  0.05380637  0.61788513  0.20432307    -0.23000
C1356       C  0.98520506  0.83048517  0.15755171    -0.05900
C1357       C  0.51038160  0.80487477  0.15254171     0.00000
C1358       C  0.53571393  0.80876520  0.12690793    -0.08500
C1359       C  0.53404892  0.83786806  0.10562183    -0.05900
C1360       C  0.50811424  0.86311282  0.10925164     0.00000
C1361       C  0.98343800  0.85972206  0.13624607    -0.08400
C1362       C  0.95487327  0.88613533  0.14214619     0.61900
H1363       H  0.96641582  0.82696296  0.17779359     0.12600
H1364       H  0.55322306  0.84095234  0.08579591     0.12600
C1365       C  0.56472002  0.78259050  0.12246219     0.62200
F1366       F  0.93209925  0.87585892  0.16672069    -0.23000
F1367       F  0.93893552  0.89370473  0.10871810    -0.20300
F1368       F  0.96622494  0.91423574  0.15672278    -0.20000
F1369       F  0.55470611  0.75510542  0.10503265    -0.20100
F1370       F  0.57787910  0.77354233  0.15696940    -0.20400
F1371       F  0.58933168  0.79396263  0.10130150    -0.23000
C1372       C  0.83780085  0.49068866  0.33661731    -0.05900
C1373       C  0.80841211  0.00742858  0.34975835     0.00000
C1374       C  0.80925764  0.02565733  0.38327625    -0.08500
C1375       C  0.83865150  0.02394889  0.40393415    -0.05900
C1376       C  0.86799737  0.00645035  0.39161783     0.00000
C1377       C  0.86770355  0.49009435  0.35652928    -0.08400
C1378       C  0.89835104  0.47188405  0.33970731     0.61900
H1379       H  0.83694681  0.47737738  0.31067915     0.12600
H1380       H  0.83846082  0.03660775  0.43027445     0.12600
C1381       C  0.77962644  0.04695729  0.39815861     0.62200
F1382       F  0.89211744  0.45817343  0.30554329    -0.23000
F1383       F  0.91085518  0.94673075  0.36259716    -0.20300
F1384       F  0.92164985  0.49363577  0.33422679    -0.20000
F1385       F  0.76078619  0.02738769  0.41858390    -0.20100
F1386       F  0.76112154  0.06237108  0.36954989    -0.20400
F1387       F  0.78895269  0.07157384  0.42120433    -0.23000
C1388       C  0.68841824  0.00447226  0.38472341    -0.05900
C1389       C  0.68990435  0.99315216  0.34769989     0.00000
C1390       C  0.66243724  0.97838439  0.33321479    -0.08500
C1391       C  0.63458454  0.97688841  0.35599887    -0.05900
C1392       C  0.63372835  0.98811914  0.39288937     0.00000
C1393       C  0.66124096  0.00168677  0.40775173    -0.08400
C1394       C  0.66156612  0.01402235  0.44757263     0.61900
H1395       H  0.70878807  0.01601736  0.39574365     0.12600
H1396       H  0.61316282  0.46661478  0.34526655     0.12600
C1397       C  0.66221174  0.96364235  0.29444336     0.62200
F1398       F  0.68957580  0.02895531  0.45562851    -0.23000
F1399       F  0.66042079  0.98774864  0.47184105    -0.20300
F1400       F  0.63478563  0.53695875  0.45349352    -0.20000
F1401       F  0.68983409  0.94148767  0.28955111    -0.20100
F1402       F  0.66147503  0.48842668  0.26811369    -0.20400
F1403       F  0.63515826  0.44659529  0.28858581    -0.23000
C1404       C  0.86859884  0.01741576  0.14346619    -0.05900
C1405       C  0.86927714  0.00439976  0.10737638     0.00000
C1406       C  0.84132015  0.49114337  0.09315325    -0.08500
C1407       C  0.81394504  0.49000078  0.11633336    -0.05900
C1408       C  0.81259910  0.00359080  0.15242360     0.00000
C1409       C  0.84036788  0.01833374  0.16595936    -0.08400
C1410       C  0.84020033  0.03617504  0.20303218     0.61900
H1411       H  0.89032804  0.02759513  0.15360044     0.12600
H1412       H  0.79313736  0.47843000  0.10608104     0.12600
C1413       C  0.84057324  0.47802118  0.05370504     0.62200
F1414       F  0.86784896  0.05257607  0.20779039    -0.23000
F1415       F  0.83945670  0.01376475  0.23190703    -0.20300
F1416       F  0.81313046  0.55944909  0.20490424    -0.20000
F1417       F  0.86668597  0.95405959  0.04840571    -0.20100
F1418       F  0.84274379  0.50364106  0.02877783    -0.20400
F1419       F  0.81189343  0.46410265  0.04607585    -0.23000
C1420       C  0.66724312  0.98344645  0.16483298    -0.05900
C1421       C  0.69276790  0.99894796  0.14843209     0.00000
C1422       C  0.68832381  0.01126533  0.11126517    -0.08500
C1423       C  0.65924154  0.00640890  0.09198175    -0.05900
C1424       C  0.63416956  0.99086267  0.10844783     0.00000
C1425       C  0.63794754  0.97921655  0.14552951    -0.08400
C1426       C  0.61173458  0.96127438  0.16416331     0.61900
H1427       H  0.67060856  0.97403123  0.19291325     0.12600
H1428       H  0.65567437  0.51490396  0.06354031     0.12600
C1429       C  0.71348706  0.02979539  0.09140060     0.62200
F1430       F  0.62165492  0.44912481  0.19890718    -0.23000
F1431       F  0.60470127  0.43484326  0.14250200    -0.20300
F1432       F  0.58356246  0.98266889  0.16868797    -0.20000
F1433       F  0.74010647  0.50792671  0.08162939    -0.20100
F1434       F  0.72349255  0.05427913  0.11407710    -0.20400
F1435       F  0.70087802  0.04492226  0.05908314    -0.23000
C1436       C  0.60467083  0.98698719  0.58559638     0.42400
N1437       N  0.55458651  0.98981618  0.56753368     0.01200
C1438       C  0.99194822  0.92644994  0.90647534    -0.06600
H1439       H  0.56200175  0.51266308  0.87744482     0.06700
C1440       C  0.98020206  0.59759135  0.95318367    -0.07000
Co1441     Co  0.54631832  0.95063117  0.99854112     0.74200
N1442       N  0.55072843  0.99268493  0.93099778    -0.26200
Co1443     Co  0.99961833  0.49734045  0.93280621     0.74100
C1444       C  0.49727363  0.59913563  0.91748951     0.42500
N1445       N  0.98408522  0.56329394  0.54453108     0.00900
N1446       N  0.99758708  0.54847629  0.93478367     0.01000
N1447       N  0.52347754  0.89647166  0.94875946    -0.47000
H1448       H  0.62256245  0.95728688  0.53385379     0.06700
N1449       N  0.56890055  0.97601955  0.95662799     0.01200
N1450       N  0.94836209  0.50154110  0.93488158     0.01000
C1451       C  0.89781675  0.50634571  0.91632175     0.42600
N1452       N  0.00128666  0.54497701  0.56946561    -0.25600
C1453       C  0.52525046  0.89407313  0.54879611    -0.06500
N1454       N  0.57371991  0.49805065  0.59503445    -0.46700
N1455       N  0.92868198  0.99397946  0.90755875    -0.46900
C1456       C  0.00789711  0.89221034  0.58412882     0.42400
N1457       N  0.52032230  0.92828305  0.95718579     0.01200
N1458       N  0.95247043  0.49878024  0.57011313    -0.25600
N1459       N  0.57105766  0.97357587  0.54065905    -0.26100
N1460       N  0.93469640  0.51618898  0.54474330     0.00900
H1461       H  0.94042520  0.97756875  0.62275206     0.06800
H1462       H  0.88206272  0.53810720  0.96780867     0.06800
N1463       N  0.50236338  0.94630575  0.93254136    -0.26200
N1464       N  0.98146127  0.56533480  0.96137329    -0.25800
N1465       N  0.50581690  0.94285579  0.56651929     0.01200
C1466       C  0.60306984  0.98719939  0.91446651     0.42600
C1467       C  0.51268426  0.56464822  0.59506841    -0.07000
N1468       N  0.93247732  0.51890743  0.96126023    -0.25800
H1469       H  0.96710581  0.61714393  0.96916578     0.06800
N1470       N  0.60041000  0.97192104  0.94760484    -0.47000
H1471       H  0.52633779  0.55592590  0.61958196     0.06800
C1472       C  0.89990314  0.50402570  0.58564408     0.42500
C1473       C  0.60314588  0.97099692  0.54935087    -0.06500
Co1474     Co  0.50357520  0.99398223  0.56890429     0.73800
N1475       N  0.98252837  0.59519115  0.55225690    -0.46700
C1476       C  0.00579840  0.89326355  0.91741378     0.42700
N1477       N  0.99706255  0.92349774  0.59349294    -0.46700
Co1478     Co  0.95769219  0.54142194  0.50314839     0.73900
C1479       C  0.90048826  0.52303762  0.95229688    -0.07100
C1480       C  0.57017676  0.50063763  0.90321275    -0.06600
N1481       N  0.52281990  0.92632483  0.54028375    -0.26100
N1482       N  0.50693333  0.56761856  0.90793720    -0.46900
H1483       H  0.97839512  0.93464418  0.88167561     0.06700
C1484       C  0.93264402  0.99020869  0.59720754    -0.07000
Cl1485     Cl  0.50181022  0.49582097  0.50083780    -0.50000
C1486       C  0.50025329  0.59827381  0.58363774     0.42500
H1487       H  0.53926289  0.87471358  0.53337913     0.06700
N1488       N  0.90308535  0.52025200  0.55323114    -0.46700
C1489       C  0.50879341  0.77390738  0.67345660     0.80100
N1490       N  0.50812586  0.74515055  0.65482217    -0.78200
C1491       C  0.50596955  0.71632748  0.67322734     0.82600
N1492       N  0.50398197  0.71662475  0.71089449    -0.78100
C1493       C  0.50466631  0.74532990  0.72994138     0.82700
N1494       N  0.50681483  0.77403562  0.71109317    -0.79900
C1495       C  0.50386502  0.77500639  0.82704678     0.80100
N1496       N  0.50138402  0.74634638  0.84570795    -0.78200
C1497       C  0.49963552  0.71745352  0.82763207     0.82600
N1498       N  0.50100740  0.71691332  0.78991126    -0.78100
C1499       C  0.50347237  0.74538760  0.77070556     0.82700
N1500       N  0.50496923  0.77414088  0.78940646    -0.79900
C1501       C  0.72341259  0.00116590  0.67089888     0.80100
N1502       N  0.72267350  0.00104260  0.70883300    -0.78200
C1503       C  0.75077840  0.00206958  0.72906947     0.82600
N1504       N  0.77980006  0.00304790  0.71103197    -0.78100
C1505       C  0.78100662  0.00314031  0.67323458     0.82700
N1506       N  0.75269988  0.00181290  0.65375373    -0.79900
C1507       C  0.72100492  0.99678188  0.82659424     0.80100
N1508       N  0.72168041  0.99796924  0.78873324    -0.78200
C1509       C  0.75003687  0.00171863  0.77033590     0.82600
N1510       N  0.77791811  0.00484996  0.79020267    -0.78100
C1511       C  0.77761727  0.00450451  0.82805823     0.82700
N1512       N  0.74922078  0.00009143  0.84582292    -0.79900
C1513       C  0.51835753  0.65865483  0.84031064    -0.05900
C1514       C  0.49724806  0.68683076  0.84926241     0.00000
C1515       C  0.97491153  0.68546093  0.87898064    -0.08500
C1516       C  0.97613088  0.65645175  0.90035013    -0.05900
C1517       C  0.49801074  0.62840613  0.89249960     0.00000
C1518       C  0.51905352  0.62916290  0.86113307    -0.08400
C1519       C  0.54233535  0.59947375  0.84937361     0.61900
H1520       H  0.53472675  0.66017052  0.81699096     0.12600
H1521       H  0.95943367  0.65562663  0.92334872     0.12600
C1522       C  0.94885728  0.71387980  0.88737133     0.62200
F1523       F  0.56172904  0.60677695  0.81969528    -0.23000
F1524       F  0.52455984  0.57408910  0.83834327    -0.20300
F1525       F  0.56297644  0.58899937  0.87859335    -0.20000
F1526       F  0.93274749  0.72451515  0.85490942    -0.20100
F1527       F  0.96310441  0.73979342  0.90323797    -0.20400
F1528       F  0.92557620  0.70455871  0.91189185    -0.23000
C1529       C  0.50261239  0.86606947  0.85624212    -0.05900
C1530       C  0.50615585  0.86268415  0.89496351     0.00000
C1531       C  0.00950234  0.83069269  0.91096851    -0.08500
C1532       C  0.00927961  0.80328377  0.88741669    -0.05900
C1533       C  0.50524090  0.80636697  0.84852258     0.00000
C1534       C  0.50198072  0.83869145  0.83249695    -0.08400
C1535       C  0.49766768  0.84510835  0.79091028     0.61900
H1536       H  0.50067508  0.89066616  0.84443923     0.12600
H1537       H  0.01256627  0.77888667  0.89973288     0.12600
C1538       C  0.01284839  0.82511177  0.95272581     0.62200
F1539       F  0.49388523  0.87853411  0.78244917    -0.23000
F1540       F  0.46994747  0.83195324  0.77811885    -0.20300
F1541       F  0.52503778  0.83122134  0.77212263    -0.20000
F1542       F  0.98813722  0.84426092  0.97107714    -0.20100
F1543       F  0.04304150  0.83329438  0.96473768    -0.20400
F1544       F  0.01062530  0.79246469  0.96245160    -0.22700
C1545       C  0.48981632  0.68833639  0.61632884    -0.05900
C1546       C  0.50484631  0.68545475  0.65154791     0.00000
C1547       C  0.01943171  0.65411476  0.66371864    -0.08500
C1548       C  0.01772622  0.62677869  0.64024896    -0.05900
C1549       C  0.50196796  0.62936554  0.60527730     0.00000
C1550       C  0.48807439  0.66105455  0.59279151    -0.08400
C1551       C  0.47137490  0.66674435  0.55507425     0.61900
H1552       H  0.47885495  0.71247314  0.60745234     0.12600
H1553       H  0.02852520  0.60291422  0.64978153     0.12600
C1554       C  0.03704365  0.64913931  0.70099697     0.62200
F1555       F  0.46191970  0.69990036  0.54818713    -0.23000
F1556       F  0.44342620  0.65048239  0.55364231    -0.20300
F1557       F  0.49269916  0.65545608  0.52714245    -0.20000
F1558       F  0.01445782  0.65291501  0.72947093    -0.20100
F1559       F  0.05969561  0.67181079  0.70506143    -0.20400
F1560       F  0.05381051  0.61788857  0.70431740    -0.23000
C1561       C  0.98520296  0.83048559  0.65755205    -0.05900
C1562       C  0.51038470  0.80487634  0.65254291     0.00000
C1563       C  0.53571830  0.80876846  0.62691141    -0.08500
C1564       C  0.53405269  0.83787132  0.60562535    -0.05900
C1565       C  0.50811635  0.86311451  0.60925350     0.00000
C1566       C  0.98343577  0.85972225  0.63624603    -0.08400
C1567       C  0.95487184  0.88613618  0.64214735     0.61900
H1568       H  0.96641441  0.82696405  0.67779502     0.12600
H1569       H  0.55322759  0.84095687  0.58580077     0.12600
C1570       C  0.56472634  0.78259562  0.62246836     0.62200
F1571       F  0.93209868  0.87586062  0.66672350    -0.23000
F1572       F  0.93893271  0.89370546  0.60872005    -0.20300
F1573       F  0.96622477  0.91423647  0.65672265    -0.20000
F1574       F  0.55471559  0.75510912  0.60503878    -0.20100
F1575       F  0.57788392  0.77354923  0.65697676    -0.20400
F1576       F  0.58933822  0.79396916  0.60130921    -0.23000
C1577       C  0.83780398  0.49072400  0.83660234    -0.05900
C1578       C  0.80841475  0.00743269  0.84974857     0.00000
C1579       C  0.80926719  0.02569374  0.88324226    -0.08500
C1580       C  0.83865894  0.02398580  0.90390438    -0.05900
C1581       C  0.86799570  0.00645112  0.89161390     0.00000
C1582       C  0.86770855  0.49013156  0.85651098    -0.08400
C1583       C  0.89836495  0.47196463  0.83966013     0.61900
H1584       H  0.83695680  0.47744003  0.81064546     0.12600
H1585       H  0.83847440  0.03667485  0.93022581     0.12600
C1586       C  0.77964510  0.04703018  0.89809024     0.62200
F1587       F  0.89213882  0.45829599  0.80547127    -0.23000
F1588       F  0.91082128  0.94667809  0.86268197    -0.20300
F1589       F  0.92164737  0.49374124  0.83422042    -0.20000
F1590       F  0.76078249  0.02749893  0.91853682    -0.20100
F1591       F  0.76115736  0.06242484  0.86945685    -0.20400
F1592       F  0.78898398  0.07166254  0.92110493    -0.23000
C1593       C  0.68842803  0.00446144  0.88472996    -0.05900
C1594       C  0.68990959  0.99315044  0.84770257     0.00000
C1595       C  0.66244013  0.97838680  0.83321674    -0.08500
C1596       C  0.63458757  0.97689188  0.85600131    -0.05900
C1597       C  0.63373359  0.98811869  0.89289330     0.00000
C1598       C  0.66124969  0.00167878  0.90775776    -0.08400
C1599       C  0.66157742  0.01401006  0.94758031     0.61900
H1600       H  0.70880294  0.01599568  0.89575479     0.12600
H1601       H  0.61316233  0.46660231  0.84526858     0.12600
C1602       C  0.66221264  0.96364563  0.79444490     0.62200
F1603       F  0.68958954  0.02893843  0.95563762    -0.23000
F1604       F  0.66042911  0.98773451  0.97184548    -0.20300
F1605       F  0.63476557  0.53697913  0.95347571    -0.20000
F1606       F  0.68983441  0.94149052  0.78955082    -0.20100
F1607       F  0.66147257  0.48841917  0.76811163    -0.20400
F1608       F  0.63515898  0.44658654  0.78858644    -0.23000
C1609       C  0.86859840  0.01741506  0.64346415    -0.05900
C1610       C  0.86927685  0.00440065  0.60737360     0.00000
C1611       C  0.84132018  0.49114254  0.59315869    -0.08500
C1612       C  0.81394457  0.49000264  0.61633860    -0.05900
C1613       C  0.81259783  0.00359154  0.65241963     0.00000
C1614       C  0.84036700  0.01833315  0.66595667    -0.08400
C1615       C  0.84019947  0.03617337  0.70303018     0.61900
H1616       H  0.89032789  0.02759314  0.65359956     0.12600
H1617       H  0.79313726  0.47843009  0.60608802     0.12600
C1618       C  0.84057528  0.47801322  0.55371345     0.62200
F1619       F  0.86784847  0.05257366  0.70778943    -0.23000
F1620       F  0.83945512  0.01376239  0.73190424    -0.20300
F1621       F  0.81312405  0.55946432  0.70489553    -0.20000
F1622       F  0.86668372  0.95406406  0.54839909    -0.20100
F1623       F  0.84274490  0.50362901  0.52878058    -0.20400
F1624       F  0.81189686  0.46409126  0.54608705    -0.23000
C1625       C  0.66724265  0.98344404  0.66482888    -0.05900
C1626       C  0.69276663  0.99894741  0.64842892     0.00000
C1627       C  0.68832186  0.01126689  0.61126295    -0.08500
C1628       C  0.65923956  0.00641090  0.59197942    -0.05900
C1629       C  0.63416840  0.99086278  0.60844452     0.00000
C1630       C  0.63794723  0.97921417  0.64552515    -0.08400
C1631       C  0.61173548  0.96126907  0.66415721     0.61900
H1632       H  0.67060872  0.97402721  0.69290845     0.12600
H1633       H  0.65567323  0.51490683  0.56354254     0.12600
C1634       C  0.71348433  0.02979897  0.59139969     0.62200
F1635       F  0.62165791  0.44912272  0.69890796    -0.23000
F1636       F  0.60470642  0.43483969  0.64250239    -0.20300
F1637       F  0.58356189  0.98266134  0.66868244    -0.20000
F1638       F  0.74010467  0.50793730  0.58163180    -0.20100
F1639       F  0.72348919  0.05428176  0.61407802    -0.20400
F1640       F  0.70087465  0.04492735  0.55908334    -0.23000
loop_ 
_geom_bond_atom_site_label_1 
_geom_bond_atom_site_label_2 
_geom_bond_distance 
_geom_bond_site_symmetry_2 
_ccdc_geom_bond_type 
C1           C38   1.463       .  S
C1          C194   1.481       .  S
C1          N429   1.347       .  A
N2           N24   1.321       .  A
N2          N429   1.325       .  A
N2          Co39   2.082       .  S
C3           C41   1.460       .  S
C3          N848   1.337       .  A
C3           H48   1.081       .  S
H4           C45   1.082       .  S
C5          C829   1.470       .  S
C5           N29   1.340       .  A
C5           H34   1.081       .  S
Co6          N14   2.099       .  S
Co6          N22   2.091       .  S
Co6         N229   2.094       .  S
Co6         N251   2.090       .  S
Co6        Cl665   2.453       .  S
N7          C455   1.342       .  A
N7           N14   1.322       .  A
N7        Co1238   2.086   1_455  S
Co8          N11   2.075   1_565  S
Co8          N15   2.092   1_565  S
Co8        N1237   2.086       .  S
Co8        N1258   2.067       .  S
Co8       Cl1075   2.449       .  S
C9           C82   1.493       .  S
C9          C825   1.470       .  S
C9           N47   1.348   1_655  A
N10          N17   1.317       .  A
N10          N40   1.323       .  A
N10         Co43   2.091       .  S
N11          N29   1.319       .  A
N11         N867   1.322       .  A
N12         C861   1.351       .  A
N12          N22   1.323       .  A
H13          C38   1.081       .  S
N14          N35   1.328       .  A
N15          N33   1.319       .  A
N15         N430   1.325   1_545  A
C16          C44   1.472       .  S
C16         C556   1.507       .  S
C16         N430   1.352   1_545  A
N17         C852   1.336       .  A
N17       Co1269   2.067   1_545  S
C18         C841   1.466       .  S
C18          N46   1.340       .  A
C18          H52   1.081       .  S
N19         C411   1.347       .  A
N19         N412   1.325       .  A
N20         C426   1.352       .  A
N20         N425   1.325       .  A
C21         C838   1.466       .  S
C21         C950   1.486       .  S
C21          N42   1.348       .  A
N22          N28   1.319       .  A
N23         C459   1.341       .  A
N23          N25   1.321   1_565  A
N23       Co1269   2.085       .  S
N24          C38   1.344       .  A
N24        Co211   2.094   1_554  S
N25          N53   1.327       .  A
N25         Co43   2.096       .  S
H26          C49   1.081       .  S
H27          C44   1.081       .  S
N28         C823   1.337   1_455  A
N28       Co1238   2.067   1_455  S
N29        Co248   2.088       .  S
N30          N46   1.320       .  A
N30         N862   1.323   1_455  A
N30         Co39   2.074       .  S
C31         C162   1.485       .  S
C31         C455   1.457       .  S
C31          N35   1.353       .  A
C32          C51   1.465       .  S
C32         N837   1.336       .  A
C32          H36   1.080       .  S
N33          C44   1.342       .  A
N33        Co248   2.090       .  S
C37         C459   1.457   1_545  S
C37         C585   1.482       .  S
C37          N53   1.352       .  A
Co39       N1247   2.067       .  S
Co39       N1253   2.084   1_455  S
Co39       Cl460   2.450       .  S
N40         C871   1.352       .  A
C41         C915   1.484       .  S
C41         N832   1.351       .  A
N42         N850   1.323       .  A
Co43        N234   2.088   1_554  S
Co43        N238   2.090   1_554  S
Co43       Cl870   2.453   1_545  S
C45         C441   1.457   1_545  S
C45         N417   1.342   1_545  A
N46        Co211   2.090   1_554  S
N47         N831   1.322   1_455  A
C49         C447   1.457       .  S
C49         N433   1.341       .  A
Cl50       Co621   2.453   1_554  S
Cl50      Co1033   2.449   1_454  S
Cl50       Co449   2.450       .  S
Cl50       Co863   2.453   1_465  S
C51         C114   1.495       .  S
C51         N860   1.352   1_455  A
C54         C127   1.473       .  S
C54          N55   1.353       .  A
C54          N59   1.357       .  A
N55          C56   1.356       .  A
C56         C111   1.485       .  S
C56          N57   1.358       .  A
N57          C58   1.359       .  A
C58          C64   1.468       .  S
C58          N59   1.360       .  A
C60          C98   1.500       .  S
C60          N61   1.357       .  A
C60          N65   1.355       .  A
N61          C62   1.353   1_455  A
C62          C79   1.479       .  S
C62          N63   1.359   1_655  A
N63          C64   1.360       .  A
C64          N65   1.358       .  A
C66         C191   1.501       .  S
C66          N67   1.365       .  A
C66          N71   1.356       .  A
N67          C68   1.364       .  A
C68          C74   1.485       .  S
C68          N69   1.363       .  A
N69          C70   1.361       .  A
C70         C178   1.502       .  S
C70          N71   1.358       .  A
C72         C159   1.508       .  S
C72          N73   1.363       .  A
C72          N77   1.364       .  A
N73          C74   1.363       .  A
C74          N75   1.362       .  A
N75          C76   1.362       .  A
C76         C143   1.496       .  S
C76          N77   1.360       .  A
C78          H85   1.083       .  S
C78          C79   1.401   1_455  A
C78          C83   1.410       .  A
C79         C900   1.416       .  A
C80          C81   1.403       .  A
C80         C899   1.416       .  A
C80          C87   1.522       .  S
C81          H86   1.080       .  S
C81         C902   1.405       .  A
C82          C83   1.427   1_655  A
C82         C901   1.405       .  A
C83          C84   1.521       .  S
C84          F88   1.385       .  S
C84          F89   1.383       .  S
C84          F90   1.383       .  S
C87          F91   1.384       .  S
C87          F92   1.381       .  S
C87          F93   1.385       .  S
C94         H101   1.081       .  S
C94          C95   1.404       .  A
C94          C99   1.408       .  A
C95         C861   1.484       .  S
C95         C916   1.415       .  A
C96          C97   1.403       .  A
C96         C915   1.415       .  A
C96         C103   1.522       .  S
C97         H102   1.081       .  S
C97         C918   1.412       .  A
C98          C99   1.427       .  A
C98         C917   1.412       .  A
C99         C100   1.524   1_455  S
C100        F104   1.385       .  S
C100        F105   1.383       .  S
C100        F106   1.383   1_655  S
C103        F107   1.384       .  S
C103        F108   1.383       .  S
C103        F109   1.385       .  S
C110        H117   1.082       .  S
C110        C111   1.405   1_655  A
C110        C115   1.406       .  A
C111        C932   1.417       .  A
C112        C113   1.406       .  A
C112        C931   1.417       .  A
C112        C119   1.522       .  S
C113        H118   1.078       .  S
C113        C934   1.410       .  A
C114        C115   1.424   1_455  A
C114        C933   1.410       .  A
C115        C116   1.522       .  S
C116        F120   1.385       .  S
C116        F121   1.383       .  S
C116        F122   1.383       .  S
C119        F123   1.383       .  S
C119        F124   1.384       .  S
C119        F125   1.385       .  S
C126        H133   1.083       .  S
C126        C131   1.408       .  A
C126        C947   1.400       .  A
C127        C128   1.414       .  A
C127        C946   1.400   1_455  A
C128        C129   1.403       .  A
C128        C135   1.520       .  S
C129        H134   1.081       .  S
C129        C130   1.406       .  A
C130        C841   1.486       .  S
C130        C951   1.423   1_455  A
C131        C950   1.423       .  A
C131        C132   1.520       .  S
C132        F136   1.385       .  S
C132        F137   1.383       .  S
C132        F138   1.383       .  S
C135        F139   1.382       .  S
C135        F140   1.384       .  S
C135        F141   1.385       .  S
C142        H149   1.083       .  S
C142        C147   1.414       .  A
C142        C553   1.404   1_565  A
C143        C144   1.420       .  A
C143        C552   1.404       .  A
C144        C145   1.408       .  A
C144        C151   1.518       .  S
C145        H150   1.080       .  S
C145        C146   1.407       .  A
C146        C426   1.507       .  S
C146        C557   1.429       .  A
C147        C556   1.429   1_565  A
C147        C148   1.520       .  S
C148        F152   1.385       .  S
C148        F154   1.383       .  S
C148        F563   1.383       .  S
C151        F155   1.379       .  S
C151        F156   1.384       .  S
C151        F157   1.385       .  S
F153        C558   1.383       .  S
C158        H165   1.075       .  S
C158        C159   1.410       .  A
C158        C163   1.406       .  A
C159        C160   1.428       .  A
C160        C161   1.416       .  A
C160        C167   1.520       .  S
C161        H576   1.083       .  S
C161        C162   1.404       .  A
C162        C163   1.410       .  A
C163        C164   1.520       .  S
C164        F168   1.384       .  S
C164        F169   1.383       .  S
C164        F580   1.383       .  S
H166        C571   1.083       .  S
C167        F171   1.384       .  S
C167        F582   1.382       .  S
C167        F583   1.385       .  S
F170        C574   1.383       .  S
F172        C577   1.382       .  S
F173        C577   1.385       .  S
C174        H181   1.083       .  S
C174        C175   1.403       .  A
C174        C179   1.414       .  A
C175        C447   1.482       .  S
C175        C586   1.411       .  A
C176        C177   1.407       .  A
C176        C585   1.411   1_565  A
C176        C183   1.519       .  S
C177        H182   1.081       .  S
C177        C588   1.411   1_565  A
C178        C179   1.426       .  A
C178        C587   1.411       .  A
C179        C180   1.520       .  S
C180        F184   1.385       .  S
C180        F185   1.382       .  S
C180        F596   1.384       .  S
C183        F188   1.383   1_565  S
C183        F189   1.384       .  S
C183        F597   1.383       .  S
F186        C590   1.384       .  S
F187        C593   1.383       .  S
C190        H197   1.082       .  S
C190        C191   1.409       .  A
C190        C195   1.410       .  A
C191        C192   1.430       .  A
C192        C193   1.408       .  A
C192        C199   1.521       .  S
C193        H608   1.084       .  S
C193        C194   1.396       .  A
C194        C195   1.416       .  A
C195        C196   1.519       .  S
C196        F202   1.382       .  S
C196        F610   1.385       .  S
C196        F611   1.384       .  S
H198        C603   1.084       .  S
C199        F204   1.383       .  S
C199        F205   1.385       .  S
C199        F613   1.381       .  S
F200        C606   1.385       .  S
F201        C606   1.384       .  S
F203        C609   1.381       .  S
C206        C243   1.463       .  S
C206        C399   1.481       .  S
C206        N634   1.347       .  A
N207        N634   1.325       .  A
N207        N229   1.321       .  A
N207       Co244   2.082       .  S
C208        C246   1.460       .  S
C208       N1053   1.337       .  A
C208        H253   1.081       .  S
H209        C250   1.082       .  S
C210       C1034   1.470       .  S
C210        N234   1.340       .  A
C210        H239   1.081       .  S
Co211       N219   2.099       .  S
Co211       N227   2.091       .  S
Co211      Cl460   2.453   1_556  S
N212        C660   1.342       .  A
N212        N219   1.322       .  A
N212      Co1443   2.086   1_455  S
Co213      N1442   2.086       .  S
Co213       N216   2.075   1_565  S
Co213      N1463   2.067       .  S
Co213       N220   2.092   1_565  S
Co213      Cl870   2.449   1_556  S
C214       C1030   1.470       .  S
C214        C287   1.493       .  S
C214        N252   1.348   1_655  A
N215        N222   1.317       .  A
N215        N245   1.323       .  A
N215       Co248   2.091       .  S
N216        N234   1.319       .  A
N216       N1072   1.322       .  A
N217       C1066   1.351       .  A
N217        N227   1.323       .  A
H218        C243   1.081       .  S
N219        N240   1.328       .  A
N220        N238   1.319       .  A
N220        N635   1.325   1_545  A
C221        C249   1.472       .  S
C221        C761   1.507       .  S
C221        N635   1.352   1_545  A
N222       C1057   1.336       .  A
N222      Co1474   2.067   1_545  S
C223       C1046   1.466       .  S
C223        N251   1.340       .  A
C223        H257   1.081       .  S
N224        C616   1.347       .  A
N224        N617   1.325       .  A
N225        C631   1.352       .  A
N225        N630   1.325       .  A
C226       C1043   1.466       .  S
C226       C1155   1.486       .  S
C226        N247   1.348       .  A
N227        N233   1.319       .  A
N228        C664   1.341       .  A
N228        N230   1.321   1_565  A
N228      Co1474   2.085       .  S
N229        C243   1.344       .  A
N230        N258   1.327       .  A
N230       Co248   2.096       .  S
H231        C254   1.081       .  S
H232        C249   1.081       .  S
N233       C1028   1.337   1_455  A
N233      Co1443   2.067   1_455  S
N235       N1067   1.323   1_455  A
N235        N251   1.320       .  A
N235       Co244   2.074       .  S
C236        C660   1.457       .  S
C236        C367   1.485       .  S
C236        N240   1.353       .  A
C237        C256   1.465       .  S
C237       N1042   1.336       .  A
C237        H241   1.080       .  S
N238        C249   1.342       .  A
C242        C664   1.457   1_545  S
C242        C790   1.482       .  S
C242        N258   1.352       .  A
Co244      N1452   2.067       .  S
Co244      N1458   2.084   1_455  S
Co244      Cl665   2.450       .  S
N245       C1076   1.352       .  A
C246       C1120   1.484       .  S
C246       N1037   1.351       .  A
N247       N1055   1.323       .  A
Co248     Cl1075   2.453   1_545  S
C250        C646   1.457   1_545  S
C250        N622   1.342   1_545  A
N252       N1036   1.322   1_455  A
C254        C652   1.457       .  S
C254        N638   1.341       .  A
Cl255      Co416   2.453       .  S
Cl255      Co828   2.449   1_455  S
Cl255      Co654   2.450       .  S
Cl255     Co1068   2.453   1_465  S
C256        C319   1.495       .  S
C256       N1065   1.352   1_455  A
C259        C332   1.473       .  S
C259        N260   1.353       .  A
C259        N264   1.357       .  A
N260        C261   1.356       .  A
C261        C316   1.485       .  S
C261        N262   1.358       .  A
N262        C263   1.359       .  A
C263        C269   1.468       .  S
C263        N264   1.360       .  A
C265        C303   1.500       .  S
C265        N266   1.357       .  A
C265        N270   1.355       .  A
N266        C267   1.353   1_455  A
C267        C284   1.479       .  S
C267        N268   1.359   1_655  A
N268        C269   1.360       .  A
C269        N270   1.358       .  A
C271        C396   1.501       .  S
C271        N272   1.365       .  A
C271        N276   1.356       .  A
N272        C273   1.364       .  A
C273        C279   1.485       .  S
C273        N274   1.363       .  A
N274        C275   1.361       .  A
C275        C383   1.502       .  S
C275        N276   1.358       .  A
C277        C364   1.508       .  S
C277        N278   1.363       .  A
C277        N282   1.364       .  A
N278        C279   1.363       .  A
C279        N280   1.362       .  A
N280        C281   1.362       .  A
C281        C348   1.496       .  S
C281        N282   1.360       .  A
C283        H290   1.083       .  S
C283        C284   1.401   1_455  A
C283        C288   1.410       .  A
C284       C1105   1.416       .  A
C285       C1104   1.416       .  A
C285        C286   1.403       .  A
C285        C292   1.522       .  S
C286        H291   1.080       .  S
C286       C1107   1.405       .  A
C287       C1106   1.405       .  A
C287        C288   1.427   1_655  A
C288        C289   1.521       .  S
C289        F293   1.385       .  S
C289        F294   1.383       .  S
C289        F295   1.383       .  S
C292        F296   1.384       .  S
C292        F297   1.381       .  S
C292        F298   1.385       .  S
C299        H306   1.081       .  S
C299        C300   1.404       .  A
C299        C304   1.408       .  A
C300       C1066   1.484       .  S
C300       C1121   1.415       .  A
C301       C1120   1.415       .  A
C301        C302   1.403       .  A
C301        C308   1.522       .  S
C302        H307   1.081       .  S
C302       C1123   1.412       .  A
C303       C1122   1.412       .  A
C303        C304   1.427       .  A
C304        C305   1.524   1_455  S
C305        F309   1.385       .  S
C305        F310   1.383       .  S
C305        F311   1.383   1_655  S
C308        F312   1.384       .  S
C308        F313   1.383       .  S
C308        F314   1.385       .  S
C315        H322   1.082       .  S
C315        C316   1.405   1_655  A
C315        C320   1.406       .  A
C316       C1137   1.417       .  A
C317       C1136   1.417       .  A
C317        C318   1.406       .  A
C317        C324   1.522       .  S
C318        H323   1.078       .  S
C318       C1139   1.410       .  A
C319       C1138   1.410       .  A
C319        C320   1.424   1_455  A
C320        C321   1.522       .  S
C321        F325   1.385       .  S
C321        F326   1.383       .  S
C321        F327   1.383       .  S
C324        F328   1.383       .  S
C324        F329   1.384       .  S
C324        F330   1.385       .  S
C331        H338   1.083       .  S
C331       C1152   1.400       .  A
C331        C336   1.408       .  A
C332       C1151   1.400   1_455  A
C332        C333   1.414       .  A
C333        C334   1.403       .  A
C333        C340   1.520       .  S
C334        H339   1.081       .  S
C334        C335   1.406       .  A
C335       C1046   1.486       .  S
C335       C1156   1.423   1_455  A
C336       C1155   1.423       .  A
C336        C337   1.520       .  S
C337        F341   1.385       .  S
C337        F342   1.383       .  S
C337        F343   1.383       .  S
C340        F344   1.382       .  S
C340        F345   1.384       .  S
C340        F346   1.385       .  S
C347        H354   1.083       .  S
C347        C758   1.404   1_565  A
C347        C352   1.414       .  A
C348        C757   1.404       .  A
C348        C349   1.420       .  A
C349        C350   1.408       .  A
C349        C356   1.518       .  S
C350        H355   1.080       .  S
C350        C351   1.407       .  A
C351        C631   1.507       .  S
C351        C762   1.429       .  A
C352        C761   1.429   1_565  A
C352        C353   1.520       .  S
C353        F357   1.385       .  S
C353        F768   1.383       .  S
C353        F359   1.383       .  S
C356        F360   1.379       .  S
C356        F361   1.384       .  S
C356        F362   1.385       .  S
F358        C763   1.383       .  S
C363        H370   1.075       .  S
C363        C364   1.410       .  A
C363        C368   1.406       .  A
C364        C365   1.428       .  A
C365        C366   1.416       .  A
C365        C372   1.520       .  S
C366        H781   1.083       .  S
C366        C367   1.404       .  A
C367        C368   1.410       .  A
C368        C369   1.520       .  S
C369        F373   1.384       .  S
C369        F374   1.383       .  S
C369        F785   1.383       .  S
H371        C776   1.083       .  S
C372        F376   1.384       .  S
C372        F787   1.382       .  S
C372        F788   1.385       .  S
F375        C779   1.383       .  S
F377        C782   1.382       .  S
F378        C782   1.385       .  S
C379        H386   1.083       .  S
C379        C380   1.403       .  A
C379        C384   1.414       .  A
C380        C652   1.482       .  S
C380        C791   1.411       .  A
C381        C790   1.411   1_565  A
C381        C382   1.407       .  A
C381        C388   1.519       .  S
C382        H387   1.081       .  S
C382        C793   1.411   1_565  A
C383        C792   1.411       .  A
C383        C384   1.426       .  A
C384        C385   1.520       .  S
C385        F389   1.385       .  S
C385        F390   1.382       .  S
C385        F801   1.384       .  S
C388        F802   1.383       .  S
C388        F393   1.383   1_565  S
C388        F394   1.384       .  S
F391        C795   1.384       .  S
F392        C798   1.383       .  S
C395        H402   1.082       .  S
C395        C396   1.409       .  A
C395        C400   1.410       .  A
C396        C397   1.430       .  A
C397        C398   1.408       .  A
C397        C404   1.521       .  S
C398        H813   1.084       .  S
C398        C399   1.396       .  A
C399        C400   1.416       .  A
C400        C401   1.519       .  S
C401        F815   1.385       .  S
C401        F816   1.384       .  S
C401        F407   1.382       .  S
H403        C808   1.084       .  S
C404        F818   1.381       .  S
C404        F409   1.383       .  S
C404        F410   1.385       .  S
F405        C811   1.385       .  S
F406        C811   1.384       .  S
F408        C814   1.381       .  S
C411        C448   1.463       .  S
C411        C604   1.481       .  S
N412        N434   1.321       .  A
N412       Co449   2.082       .  S
C413        C451   1.460       .  S
C413       N1258   1.337       .  A
C413        H458   1.081       .  S
H414        C455   1.082       .  S
C415       C1239   1.470       .  S
C415        N439   1.340       .  A
C415        H444   1.081       .  S
Co416       N639   2.094       .  S
Co416       N424   2.099       .  S
Co416       N661   2.090       .  S
Co416       N432   2.090       .  S
N417        N424   1.322       .  A
N417       Co828   2.086   1_455  S
Co418       N827   2.086       .  S
Co418       N421   2.075       .  S
Co418       N848   2.067       .  S
Co418       N425   2.093       .  S
Co418     Cl1485   2.449       .  S
C419       C1235   1.470       .  S
C419        C492   1.493       .  S
C419        N457   1.348   1_655  A
N420        N427   1.317       .  A
N420        N450   1.323       .  A
N420       Co453   2.091       .  S
N421        N439   1.319       .  A
N421       N1277   1.322       .  A
N422       C1271   1.351       .  A
N422        N432   1.323       .  A
H423        C448   1.081       .  S
N424        N445   1.328       .  A
N425        N443   1.319       .  A
C426        C454   1.472       .  S
N427       C1262   1.336       .  A
N427       Co859   2.067       .  S
C428       C1251   1.466       .  S
C428        N456   1.340       .  A
C428        H462   1.081       .  S
C431       C1248   1.466       .  S
C431       C1360   1.486       .  S
C431        N452   1.348       .  A
N432        N438   1.319       .  A
N433        N435   1.321       .  A
N433       Co859   2.084       .  S
N434        C448   1.344       .  A
N434       Co621   2.094   1_554  S
N435        N463   1.327       .  A
N435       Co453   2.096       .  S
H436        C459   1.081       .  S
H437        C454   1.081       .  S
N438       C1233   1.337   1_455  A
N438       Co828   2.067   1_455  S
N439       Co658   2.088       .  S
N440       N1272   1.323   1_455  A
N440        N456   1.320       .  A
N440       Co449   2.074       .  S
C441        C572   1.485       .  S
C441        N445   1.353       .  A
C442        C461   1.465       .  S
C442       N1247   1.336       .  A
C442        H446   1.080       .  S
N443        C454   1.342       .  A
N443       Co658   2.090       .  S
C447        N463   1.352       .  A
Co449       N837   2.067   1_565  S
Co449       N843   2.084   1_455  S
N450       C1281   1.352       .  A
C451       C1325   1.484       .  S
C451       N1242   1.351       .  A
N452       N1260   1.323       .  A
Co453       N644   2.088   1_554  S
Co453       N648   2.090   1_554  S
Co453     Cl1280   2.453       .  S
N456       Co621   2.090   1_554  S
N457       N1241   1.322   1_455  A
Cl460     Co1443   2.449   1_454  S
Cl460     Co1273   2.453   1_455  S
C461        C524   1.495       .  S
C461       N1270   1.352   1_455  A
C464        C537   1.473       .  S
C464        N465   1.353       .  A
C464        N469   1.357       .  A
N465        C466   1.356       .  A
C466        C521   1.485       .  S
C466        N467   1.358       .  A
N467        C468   1.359       .  A
C468        C474   1.467       .  S
C468        N469   1.360       .  A
C470        C508   1.500       .  S
C470        N471   1.357       .  A
C470        N475   1.355       .  A
N471        C472   1.353   1_455  A
C472        C489   1.479       .  S
C472        N473   1.359   1_655  A
N473        C474   1.360       .  A
C474        N475   1.358       .  A
C476        C601   1.501   1_545  S
C476        N477   1.365       .  A
C476        N481   1.356       .  A
N477        C478   1.364       .  A
C478        C484   1.485       .  S
C478        N479   1.363       .  A
N479        C480   1.361       .  A
C480        C588   1.502       .  S
C480        N481   1.358       .  A
C482        C569   1.508       .  S
C482        N483   1.363       .  A
C482        N487   1.364   1_565  A
N483        C484   1.363   1_565  A
C484        N485   1.362       .  A
N485        C486   1.362       .  A
C486        C553   1.496       .  S
C486        N487   1.360       .  A
C488        H495   1.083       .  S
C488        C489   1.401   1_455  A
C488        C493   1.410       .  A
C489       C1310   1.416       .  A
C490       C1309   1.416       .  A
C490        C491   1.403       .  A
C490        C497   1.522       .  S
C491        H496   1.080       .  S
C491       C1312   1.405       .  A
C492       C1311   1.405       .  A
C492        C493   1.427   1_655  A
C493        C494   1.521       .  S
C494        F498   1.385       .  S
C494        F499   1.383       .  S
C494        F500   1.383       .  S
C497        F501   1.384       .  S
C497        F502   1.381       .  S
C497        F503   1.385       .  S
C504        H511   1.081       .  S
C504        C505   1.404       .  A
C504        C509   1.408       .  A
C505       C1271   1.484       .  S
C505       C1326   1.415       .  A
C506       C1325   1.415       .  A
C506        C507   1.403       .  A
C506        C513   1.522       .  S
C507        H512   1.081       .  S
C507       C1328   1.412       .  A
C508       C1327   1.412       .  A
C508        C509   1.427       .  A
C509        C510   1.524   1_455  S
C510        F514   1.385       .  S
C510        F515   1.383       .  S
C510        F516   1.383   1_655  S
C513        F517   1.384       .  S
C513        F518   1.383       .  S
C513        F519   1.385       .  S
C520        H527   1.082       .  S
C520        C521   1.405   1_655  A
C520        C525   1.406       .  A
C521       C1342   1.417       .  A
C522       C1341   1.417       .  A
C522        C523   1.406       .  A
C522        C529   1.522       .  S
C523        H528   1.078       .  S
C523       C1344   1.410       .  A
C524       C1343   1.410       .  A
C524        C525   1.424   1_455  A
C525        C526   1.522       .  S
C526        F530   1.385       .  S
C526        F531   1.383       .  S
C526        F532   1.383       .  S
C529        F533   1.383       .  S
C529        F534   1.384       .  S
C529        F535   1.385       .  S
C536        H543   1.083       .  S
C536       C1357   1.400       .  A
C536        C541   1.408       .  A
C537       C1356   1.400   1_455  A
C537        C538   1.414       .  A
C538        C539   1.403       .  A
C538        C545   1.520       .  S
C539        H544   1.081       .  S
C539        C540   1.406       .  A
C540       C1251   1.486       .  S
C540       C1361   1.423   1_455  A
C541       C1360   1.423       .  A
C541        C542   1.520       .  S
C542        F546   1.385       .  S
C542        F547   1.383       .  S
C542        F548   1.383       .  S
C545        F549   1.382       .  S
C545        F550   1.384       .  S
C545        F551   1.385       .  S
C552        H559   1.083       .  S
C552        C557   1.414       .  A
C553        C554   1.420       .  A
C554        C555   1.408       .  A
C554        C561   1.518       .  S
C555        H560   1.080       .  S
C555        C556   1.407       .  A
C557        C558   1.520       .  S
C558        F562   1.385       .  S
C558        F564   1.383       .  S
C561        F565   1.379       .  S
C561        F566   1.384       .  S
C561        F567   1.385       .  S
C568        H575   1.075       .  S
C568        C569   1.410   1_545  A
C568        C573   1.406       .  A
C569        C570   1.428       .  A
C570        C571   1.416       .  A
C570        C577   1.520       .  S
C571        C572   1.404       .  A
C572        C573   1.410   1_565  A
C573        C574   1.520       .  S
C574        F578   1.384       .  S
C574        F579   1.383   1_545  S
C577        F581   1.384       .  S
C584        H591   1.083       .  S
C584        C585   1.403       .  A
C584        C589   1.414       .  A
C586        C587   1.407       .  A
C586        C593   1.519       .  S
C587        H592   1.081       .  S
C588        C589   1.426       .  A
C589        C590   1.520       .  S
C590        F594   1.385       .  S
C590        F595   1.382       .  S
C593        F598   1.383       .  S
C593        F599   1.384       .  S
C600        H607   1.082       .  S
C600        C601   1.409       .  A
C600        C605   1.410       .  A
C601        C602   1.430   1_565  A
C602        C603   1.408       .  A
C602        C609   1.521       .  S
C603        C604   1.396   1_545  A
C604        C605   1.416       .  A
C605        C606   1.519       .  S
C606        F612   1.382       .  S
C609        F614   1.383       .  S
C609        F615   1.385       .  S
C616        C653   1.463       .  S
C616        C809   1.481       .  S
N617        N639   1.321       .  A
N617       Co654   2.082       .  S
C618        C656   1.460       .  S
C618       N1463   1.337       .  A
C618        H663   1.081       .  S
H619        C660   1.082       .  S
C620       C1444   1.470       .  S
C620        N644   1.340       .  A
C620        H649   1.081       .  S
Co621       N629   2.099       .  S
Co621       N637   2.090       .  S
N622        N629   1.322       .  A
N622      Co1033   2.086   1_455  S
Co623      N1032   2.086       .  S
Co623       N626   2.075       .  S
Co623      N1053   2.067       .  S
Co623       N630   2.093       .  S
Co623     Cl1280   2.449   1_556  S
C624       C1440   1.470       .  S
C624        C697   1.493       .  S
C624        N662   1.348   1_655  A
N625        N632   1.317       .  A
N625        N655   1.323       .  A
N625       Co658   2.091       .  S
N626        N644   1.319       .  A
N626       N1482   1.322       .  A
N627       C1476   1.351       .  A
N627        N637   1.323       .  A
H628        C653   1.081       .  S
N629        N650   1.328       .  A
N630        N648   1.319       .  A
C631        C659   1.472       .  S
N632       C1467   1.336       .  A
N632      Co1064   2.067       .  S
C633       C1456   1.466       .  S
C633        N661   1.340       .  A
C633        H667   1.081       .  S
C636       C1453   1.466       .  S
C636       C1565   1.486       .  S
C636        N657   1.348       .  A
N637        N643   1.319       .  A
N638        N640   1.321       .  A
N638      Co1064   2.084       .  S
N639        C653   1.344       .  A
N640        N668   1.327       .  A
N640       Co658   2.096       .  S
H641        C664   1.081       .  S
H642        C659   1.081       .  S
N643       C1438   1.337   1_455  A
N643      Co1033   2.067   1_455  S
N645       N1477   1.323   1_455  A
N645        N661   1.320       .  A
N645       Co654   2.074       .  S
C646        C777   1.485       .  S
C646        N650   1.353       .  A
C647        C666   1.465       .  S
C647       N1452   1.336       .  A
C647        H651   1.080       .  S
N648        C659   1.342       .  A
C652        N668   1.352       .  A
Co654      N1042   2.067   1_565  S
Co654      N1048   2.085   1_455  S
N655       C1486   1.352       .  A
C656       C1530   1.484       .  S
C656       N1447   1.351       .  A
N657       N1465   1.323       .  A
Co658     Cl1485   2.453       .  S
N662       N1446   1.322   1_455  A
Cl665     Co1238   2.449   1_455  S
Cl665     Co1478   2.453   1_455  S
C666        C729   1.495       .  S
C666       N1475   1.352   1_455  A
C669        C742   1.473       .  S
C669        N670   1.353       .  A
C669        N674   1.357       .  A
N670        C671   1.356       .  A
C671        C726   1.485       .  S
C671        N672   1.358       .  A
N672        C673   1.359       .  A
C673        C679   1.467       .  S
C673        N674   1.360       .  A
C675        C713   1.500       .  S
C675        N676   1.357       .  A
C675        N680   1.355       .  A
N676        C677   1.353   1_455  A
C677        C694   1.479       .  S
C677        N678   1.359   1_655  A
N678        C679   1.360       .  A
C679        N680   1.358       .  A
C681        C806   1.501   1_545  S
C681        N682   1.365       .  A
C681        N686   1.356       .  A
N682        C683   1.364       .  A
C683        C689   1.485       .  S
C683        N684   1.363       .  A
N684        C685   1.361       .  A
C685        C793   1.502       .  S
C685        N686   1.358       .  A
C687        C774   1.508       .  S
C687        N688   1.363       .  A
C687        N692   1.364   1_565  A
N688        C689   1.363   1_565  A
C689        N690   1.362       .  A
N690        C691   1.362       .  A
C691        C758   1.496       .  S
C691        N692   1.360       .  A
C693        H700   1.083       .  S
C693        C694   1.401   1_455  A
C693        C698   1.410       .  A
C694       C1515   1.416       .  A
C695       C1514   1.416       .  A
C695        C696   1.403       .  A
C695        C702   1.522       .  S
C696        H701   1.080       .  S
C696       C1517   1.405       .  A
C697       C1516   1.405       .  A
C697        C698   1.427   1_655  A
C698        C699   1.521       .  S
C699        F703   1.385       .  S
C699        F704   1.383       .  S
C699        F705   1.383       .  S
C702        F706   1.384       .  S
C702        F707   1.381       .  S
C702        F708   1.385       .  S
C709        H716   1.081       .  S
C709        C710   1.404       .  A
C709        C714   1.408       .  A
C710       C1476   1.484       .  S
C710       C1531   1.415       .  A
C711       C1530   1.415       .  A
C711        C712   1.403       .  A
C711        C718   1.522       .  S
C712        H717   1.081       .  S
C712       C1533   1.412       .  A
C713       C1532   1.412       .  A
C713        C714   1.427       .  A
C714        C715   1.524   1_455  S
C715        F719   1.385       .  S
C715        F720   1.383       .  S
C715        F721   1.383   1_655  S
C718        F722   1.384       .  S
C718        F723   1.383       .  S
C718        F724   1.385       .  S
C725        H732   1.082       .  S
C725        C726   1.405   1_655  A
C725        C730   1.406       .  A
C726       C1547   1.417       .  A
C727       C1546   1.417       .  A
C727        C728   1.406       .  A
C727        C734   1.522       .  S
C728        H733   1.078       .  S
C728       C1549   1.410       .  A
C729       C1548   1.410       .  A
C729        C730   1.424   1_455  A
C730        C731   1.522       .  S
C731        F735   1.385       .  S
C731        F736   1.383       .  S
C731        F737   1.383       .  S
C734        F738   1.383       .  S
C734        F739   1.384       .  S
C734        F740   1.385       .  S
C741        H748   1.083       .  S
C741       C1562   1.400       .  A
C741        C746   1.408       .  A
C742       C1561   1.400   1_455  A
C742        C743   1.414       .  A
C743        C744   1.403       .  A
C743        C750   1.520       .  S
C744        H749   1.081       .  S
C744        C745   1.406       .  A
C745       C1456   1.486       .  S
C745       C1566   1.423   1_455  A
C746       C1565   1.423       .  A
C746        C747   1.520       .  S
C747        F751   1.385       .  S
C747        F752   1.383       .  S
C747        F753   1.383       .  S
C750        F754   1.382       .  S
C750        F755   1.384       .  S
C750        F756   1.385       .  S
C757        H764   1.083       .  S
C757        C762   1.414       .  A
C758        C759   1.420       .  A
C759        C760   1.408       .  A
C759        C766   1.518       .  S
C760        H765   1.080       .  S
C760        C761   1.407       .  A
C762        C763   1.520       .  S
C763        F767   1.385       .  S
C763        F769   1.383       .  S
C766        F770   1.379       .  S
C766        F771   1.384       .  S
C766        F772   1.385       .  S
C773        H780   1.075       .  S
C773        C774   1.410   1_545  A
C773        C778   1.406       .  A
C774        C775   1.428       .  A
C775        C776   1.416       .  A
C775        C782   1.520       .  S
C776        C777   1.404       .  A
C777        C778   1.410   1_565  A
C778        C779   1.520       .  S
C779        F783   1.384       .  S
C779        F784   1.383   1_545  S
C782        F786   1.384       .  S
C789        H796   1.083       .  S
C789        C790   1.403       .  A
C789        C794   1.414       .  A
C791        C792   1.407       .  A
C791        C798   1.519       .  S
C792        H797   1.081       .  S
C793        C794   1.426       .  A
C794        C795   1.520       .  S
C795        F799   1.385       .  S
C795        F800   1.382       .  S
C798        F803   1.383       .  S
C798        F804   1.384       .  S
C805        H812   1.082       .  S
C805        C806   1.409       .  A
C805        C810   1.410       .  A
C806        C807   1.430   1_565  A
C807        C808   1.408       .  A
C807        C814   1.521       .  S
C808        C809   1.396   1_545  A
C809        C810   1.416       .  A
C810        C811   1.519       .  S
C811        F817   1.382       .  S
C814        F819   1.383       .  S
C814        F820   1.385       .  S
C821        C858   1.463       .  S
C821       C1014   1.481       .  S
C821       N1249   1.347       .  A
N822       N1249   1.325       .  A
N822        N844   1.321       .  A
N822       Co859   2.082       .  S
C823        C861   1.460   1_655  S
C823        H868   1.081       .  S
H824        C865   1.082       .  S
C825        N849   1.340       .  A
C825        H854   1.081       .  S
Co826      N1049   2.094       .  S
Co826       N834   2.099       .  S
Co826      N1071   2.090       .  S
Co826       N842   2.091       .  S
Co826     Cl1485   2.453       .  S
N827       C1275   1.342       .  A
N827        N834   1.322       .  A
Co828       N831   2.075   1_565  S
Co828       N835   2.092   1_565  S
C829        C902   1.493       .  S
C829        N867   1.348       .  A
N830        N837   1.317   1_655  A
N830        N860   1.323       .  A
N830       Co863   2.091       .  S
N831        N849   1.319       .  A
N832        N842   1.323       .  A
H833        C858   1.081       .  S
N834        N855   1.328       .  A
N835        N853   1.319       .  A
N835       N1250   1.325   1_545  A
C836        C864   1.472       .  S
C836       C1376   1.507       .  S
C836       N1250   1.352   1_545  A
C838        N866   1.340       .  A
C838        H872   1.081       .  S
N839       C1231   1.347       .  A
N839       N1232   1.325       .  A
N840       C1246   1.352       .  A
N840       N1245   1.325       .  A
C841        N862   1.348   1_455  A
N842        N848   1.319       .  A
N843       C1279   1.341       .  A
N843        N845   1.321   1_565  A
N844        C858   1.344       .  A
N844      Co1031   2.094   1_554  S
N845        N873   1.327       .  A
N845       Co863   2.096       .  S
H846        C869   1.081       .  S
H847        C864   1.081       .  S
N849      Co1068   2.088       .  S
N850        N866   1.320       .  A
N850       Co859   2.074       .  S
C851       C1275   1.457       .  S
C851        C982   1.485       .  S
C851        N855   1.353       .  A
C852        C871   1.465       .  S
C852        H856   1.080       .  S
N853        C864   1.342       .  A
N853      Co1068   2.090       .  S
C857       C1279   1.457   1_545  S
C857       C1405   1.482       .  S
C857        N873   1.352       .  A
Co859     Cl1280   2.450       .  S
Co863      N1054   2.088   1_554  S
Co863      N1058   2.090   1_554  S
C865       C1261   1.457   1_545  S
C865       N1237   1.342   1_545  A
N866      Co1031   2.090   1_554  S
C869       C1267   1.457       .  S
C869       N1253   1.341       .  A
Cl870     Co1441   2.453   1_554  S
Cl870     Co1269   2.450       .  S
C871        C934   1.495       .  S
C874        C947   1.473       .  S
C874        N875   1.353       .  A
C874        N879   1.357       .  A
N875        C876   1.356       .  A
C876        C931   1.485       .  S
C876        N877   1.358       .  A
N877        C878   1.359       .  A
C878        C884   1.468       .  S
C878        N879   1.360       .  A
C880        C918   1.500       .  S
C880        N881   1.357       .  A
C880        N885   1.355       .  A
N881        C882   1.353       .  A
C882        C899   1.479       .  S
C882        N883   1.359       .  A
N883        C884   1.360       .  A
C884        N885   1.358       .  A
C886       C1011   1.501       .  S
C886        N887   1.365       .  A
C886        N891   1.356       .  A
N887        C888   1.364       .  A
C888        C894   1.485       .  S
C888        N889   1.363       .  A
N889        C890   1.361       .  A
C890        C998   1.502       .  S
C890        N891   1.358       .  A
C892        C979   1.508       .  S
C892        N893   1.363       .  A
C892        N897   1.364       .  A
N893        C894   1.363       .  A
C894        N895   1.362       .  A
N895        C896   1.362       .  A
C896        C963   1.496       .  S
C896        N897   1.360       .  A
C898        H905   1.083       .  S
C898        C899   1.401       .  A
C898        C903   1.410       .  A
C900        C901   1.403       .  A
C900        C907   1.522       .  S
C901        H906   1.080       .  S
C902        C903   1.427       .  A
C903        C904   1.521       .  S
C904        F908   1.385       .  S
C904        F909   1.383       .  S
C904        F910   1.383       .  S
C907        F911   1.384       .  S
C907        F912   1.381       .  S
C907        F913   1.385       .  S
C914        H921   1.081       .  S
C914        C915   1.404       .  A
C914        C919   1.408       .  A
C916        C917   1.403       .  A
C916        C923   1.522       .  S
C917        H922   1.081       .  S
C918        C919   1.427       .  A
C919        C920   1.524       .  S
C920        F924   1.385       .  S
C920        F925   1.383       .  S
C920        F926   1.383       .  S
C923        F927   1.384   1_455  S
C923        F928   1.383       .  S
C923        F929   1.385       .  S
C930        H937   1.082       .  S
C930        C931   1.405       .  A
C930        C935   1.406       .  A
C932        C933   1.406       .  A
C932        C939   1.522       .  S
C933        H938   1.078       .  S
C934        C935   1.424       .  A
C935        C936   1.522       .  S
C936        F940   1.385       .  S
C936        F941   1.383       .  S
C936        F942   1.383       .  S
C939        F943   1.383       .  S
C939        F944   1.384       .  S
C939        F945   1.385       .  S
C946        H953   1.083       .  S
C946        C951   1.408       .  A
C947        C948   1.414       .  A
C948        C949   1.403       .  A
C948        C955   1.520       .  S
C949        H954   1.081       .  S
C949        C950   1.406       .  A
C951        C952   1.520       .  S
C952        F956   1.385       .  S
C952        F957   1.383       .  S
C952        F958   1.383       .  S
C955        F959   1.382       .  S
C955        F960   1.384       .  S
C955        F961   1.385       .  S
C962        H969   1.083       .  S
C962       C1373   1.404   1_565  A
C962        C967   1.414       .  A
C963       C1372   1.404       .  A
C963        C964   1.420       .  A
C964        C965   1.408       .  A
C964        C971   1.518       .  S
C965        H970   1.080       .  S
C965        C966   1.407       .  A
C966       C1246   1.507       .  S
C966       C1377   1.429       .  A
C967       C1376   1.429   1_565  A
C967        C968   1.520       .  S
C968        F972   1.385       .  S
C968       F1383   1.383       .  S
C968        F974   1.383       .  S
C971        F975   1.379       .  S
C971        F976   1.384       .  S
C971        F977   1.385       .  S
F973       C1378   1.383       .  S
C978        H985   1.075       .  S
C978        C979   1.410       .  A
C978        C983   1.406       .  A
C979        C980   1.428       .  A
C980        C981   1.416       .  A
C980        C987   1.520       .  S
C981       H1396   1.083       .  S
C981        C982   1.404       .  A
C982        C983   1.410       .  A
C983        C984   1.520       .  S
C984        F988   1.384       .  S
C984        F989   1.383       .  S
C984       F1400   1.383       .  S
H986       C1391   1.083       .  S
C987        F991   1.384       .  S
C987       F1402   1.382       .  S
C987       F1403   1.385       .  S
F990       C1394   1.383       .  S
F992       C1397   1.382       .  S
F993       C1397   1.385       .  S
C994       H1001   1.083       .  S
C994        C995   1.403       .  A
C994        C999   1.414       .  A
C995       C1267   1.482       .  S
C995       C1406   1.411       .  A
C996       C1405   1.411   1_565  A
C996        C997   1.407       .  A
C996       C1003   1.519       .  S
C997       H1002   1.081       .  S
C997       C1408   1.411   1_565  A
C998       C1407   1.411       .  A
C998        C999   1.426       .  A
C999       C1000   1.520       .  S
C1000      F1004   1.385       .  S
C1000      F1005   1.382       .  S
C1000      F1416   1.384       .  S
C1003      F1417   1.383       .  S
C1003      F1008   1.383   1_565  S
C1003      F1009   1.384       .  S
F1006      C1410   1.384       .  S
F1007      C1413   1.383       .  S
C1010      H1017   1.082       .  S
C1010      C1011   1.409       .  A
C1010      C1015   1.410       .  A
C1011      C1012   1.430       .  A
C1012      C1013   1.408       .  A
C1012      C1019   1.521       .  S
C1013      H1428   1.084       .  S
C1013      C1014   1.396       .  A
C1014      C1015   1.416       .  A
C1015      C1016   1.519       .  S
C1016      F1430   1.385       .  S
C1016      F1431   1.384       .  S
C1016      F1022   1.382       .  S
H1018      C1423   1.084       .  S
C1019      F1433   1.381       .  S
C1019      F1024   1.383       .  S
C1019      F1025   1.385       .  S
F1020      C1426   1.385       .  S
F1021      C1426   1.384       .  S
F1023      C1429   1.381       .  S
C1026      C1063   1.463       .  S
C1026      C1219   1.481       .  S
C1026      N1454   1.347       .  A
N1027      N1454   1.325       .  A
N1027      N1049   1.321       .  A
N1027     Co1064   2.082       .  S
C1028      C1066   1.460   1_655  S
C1028      H1073   1.081       .  S
H1029      C1070   1.082       .  S
C1030      N1054   1.340       .  A
C1030      H1059   1.081       .  S
Co1031     N1039   2.099       .  S
Co1031     N1047   2.091       .  S
Co1031    Cl1280   2.453   1_556  S
N1032      C1480   1.342       .  A
N1032      N1039   1.322       .  A
Co1033     N1036   2.075   1_565  S
Co1033     N1040   2.092   1_565  S
C1034      C1107   1.493       .  S
C1034      N1072   1.348       .  A
N1035      N1042   1.317   1_655  A
N1035      N1065   1.323       .  A
N1035     Co1068   2.091       .  S
N1036      N1054   1.319       .  A
N1037      N1047   1.323       .  A
H1038      C1063   1.081       .  S
N1039      N1060   1.328       .  A
N1040      N1058   1.319       .  A
N1040      N1455   1.325   1_545  A
C1041      C1069   1.472       .  S
C1041      C1581   1.507       .  S
C1041      N1455   1.352   1_545  A
C1043      N1071   1.340       .  A
C1043      H1077   1.081       .  S
N1044      C1436   1.347       .  A
N1044      N1437   1.325       .  A
N1045      C1451   1.352       .  A
N1045      N1450   1.325       .  A
C1046      N1067   1.348   1_455  A
N1047      N1053   1.319       .  A
N1048      C1484   1.341       .  A
N1048      N1050   1.321   1_565  A
N1049      C1063   1.344       .  A
N1050      N1078   1.327       .  A
N1050     Co1068   2.096       .  S
H1051      C1074   1.081       .  S
H1052      C1069   1.081       .  S
N1055      N1071   1.320       .  A
N1055     Co1064   2.074       .  S
C1056      C1480   1.457       .  S
C1056      C1187   1.485       .  S
C1056      N1060   1.353       .  A
C1057      C1076   1.465       .  S
C1057      H1061   1.080       .  S
N1058      C1069   1.342       .  A
C1062      C1484   1.457   1_545  S
C1062      C1610   1.482       .  S
C1062      N1078   1.352       .  A
Co1064    Cl1485   2.450       .  S
C1070      C1466   1.457   1_545  S
C1070      N1442   1.342   1_545  A
C1074      C1472   1.457       .  S
C1074      N1458   1.341       .  A
Cl1075    Co1236   2.453       .  S
Cl1075    Co1474   2.450       .  S
C1076      C1139   1.495       .  S
C1079      C1152   1.473       .  S
C1079      N1080   1.353       .  A
C1079      N1084   1.357       .  A
N1080      C1081   1.356       .  A
C1081      C1136   1.485       .  S
C1081      N1082   1.358       .  A
N1082      C1083   1.359       .  A
C1083      C1089   1.468       .  S
C1083      N1084   1.360       .  A
C1085      C1123   1.500       .  S
C1085      N1086   1.357       .  A
C1085      N1090   1.355       .  A
N1086      C1087   1.353       .  A
C1087      C1104   1.479       .  S
C1087      N1088   1.359       .  A
N1088      C1089   1.360       .  A
C1089      N1090   1.358       .  A
C1091      C1216   1.501       .  S
C1091      N1092   1.365       .  A
C1091      N1096   1.356       .  A
N1092      C1093   1.364       .  A
C1093      C1099   1.485       .  S
C1093      N1094   1.363       .  A
N1094      C1095   1.361       .  A
C1095      C1203   1.502       .  S
C1095      N1096   1.358       .  A
C1097      C1184   1.508       .  S
C1097      N1098   1.363       .  A
C1097      N1102   1.364       .  A
N1098      C1099   1.363       .  A
C1099      N1100   1.362       .  A
N1100      C1101   1.362       .  A
C1101      C1168   1.496       .  S
C1101      N1102   1.360       .  A
C1103      H1110   1.083       .  S
C1103      C1104   1.401       .  A
C1103      C1108   1.410       .  A
C1105      C1106   1.403       .  A
C1105      C1112   1.522       .  S
C1106      H1111   1.080       .  S
C1107      C1108   1.427       .  A
C1108      C1109   1.521       .  S
C1109      F1113   1.385       .  S
C1109      F1114   1.383       .  S
C1109      F1115   1.383       .  S
C1112      F1116   1.384       .  S
C1112      F1117   1.381       .  S
C1112      F1118   1.385       .  S
C1119      H1126   1.081       .  S
C1119      C1120   1.404       .  A
C1119      C1124   1.408       .  A
C1121      C1122   1.403       .  A
C1121      C1128   1.522       .  S
C1122      H1127   1.081       .  S
C1123      C1124   1.427       .  A
C1124      C1125   1.524       .  S
C1125      F1129   1.385       .  S
C1125      F1130   1.383       .  S
C1125      F1131   1.383       .  S
C1128      F1132   1.384   1_455  S
C1128      F1133   1.383       .  S
C1128      F1134   1.385       .  S
C1135      H1142   1.082       .  S
C1135      C1136   1.405       .  A
C1135      C1140   1.406       .  A
C1137      C1138   1.406       .  A
C1137      C1144   1.522       .  S
C1138      H1143   1.078       .  S
C1139      C1140   1.424       .  A
C1140      C1141   1.522       .  S
C1141      F1145   1.385       .  S
C1141      F1146   1.383       .  S
C1141      F1147   1.383       .  S
C1144      F1148   1.383       .  S
C1144      F1149   1.384       .  S
C1144      F1150   1.385       .  S
C1151      H1158   1.083       .  S
C1151      C1156   1.408       .  A
C1152      C1153   1.414       .  A
C1153      C1154   1.403       .  A
C1153      C1160   1.520       .  S
C1154      H1159   1.081       .  S
C1154      C1155   1.406       .  A
C1156      C1157   1.520       .  S
C1157      F1161   1.385       .  S
C1157      F1162   1.383       .  S
C1157      F1163   1.383       .  S
C1160      F1164   1.382       .  S
C1160      F1165   1.384       .  S
C1160      F1166   1.385       .  S
C1167      H1174   1.083       .  S
C1167      C1578   1.404   1_565  A
C1167      C1172   1.414       .  A
C1168      C1577   1.404       .  A
C1168      C1169   1.420       .  A
C1169      C1170   1.408       .  A
C1169      C1176   1.518       .  S
C1170      H1175   1.080       .  S
C1170      C1171   1.407       .  A
C1171      C1451   1.507       .  S
C1171      C1582   1.429       .  A
C1172      C1581   1.429   1_565  A
C1172      C1173   1.520       .  S
C1173      F1177   1.385       .  S
C1173      F1588   1.383       .  S
C1173      F1179   1.383       .  S
C1176      F1180   1.379       .  S
C1176      F1181   1.384       .  S
C1176      F1182   1.385       .  S
F1178      C1583   1.383       .  S
C1183      H1190   1.075       .  S
C1183      C1184   1.410       .  A
C1183      C1188   1.406       .  A
C1184      C1185   1.428       .  A
C1185      C1186   1.416       .  A
C1185      C1192   1.520       .  S
C1186      H1601   1.083       .  S
C1186      C1187   1.404       .  A
C1187      C1188   1.410       .  A
C1188      C1189   1.520       .  S
C1189      F1193   1.384       .  S
C1189      F1194   1.383       .  S
C1189      F1605   1.383       .  S
H1191      C1596   1.083       .  S
C1192      F1196   1.384       .  S
C1192      F1607   1.382       .  S
C1192      F1608   1.385       .  S
F1195      C1599   1.383       .  S
F1197      C1602   1.382       .  S
F1198      C1602   1.385       .  S
C1199      H1206   1.083       .  S
C1199      C1200   1.403       .  A
C1199      C1204   1.414       .  A
C1200      C1472   1.482       .  S
C1200      C1611   1.411       .  A
C1201      C1610   1.411   1_565  A
C1201      C1202   1.407       .  A
C1201      C1208   1.519       .  S
C1202      H1207   1.081       .  S
C1202      C1613   1.411   1_565  A
C1203      C1612   1.411       .  A
C1203      C1204   1.426       .  A
C1204      C1205   1.520       .  S
C1205      F1209   1.385       .  S
C1205      F1210   1.382       .  S
C1205      F1621   1.384       .  S
C1208      F1622   1.383       .  S
C1208      F1213   1.383   1_565  S
C1208      F1214   1.384       .  S
F1211      C1615   1.384       .  S
F1212      C1618   1.383       .  S
C1215      H1222   1.082       .  S
C1215      C1216   1.409       .  A
C1215      C1220   1.410       .  A
C1216      C1217   1.430       .  A
C1217      C1218   1.408       .  A
C1217      C1224   1.521       .  S
C1218      H1633   1.084       .  S
C1218      C1219   1.396       .  A
C1219      C1220   1.416       .  A
C1220      C1221   1.519       .  S
C1221      F1635   1.385       .  S
C1221      F1636   1.384       .  S
C1221      F1227   1.382       .  S
H1223      C1628   1.084       .  S
C1224      F1638   1.381       .  S
C1224      F1229   1.383       .  S
C1224      F1230   1.385       .  S
F1225      C1631   1.385       .  S
F1226      C1631   1.384       .  S
F1228      C1634   1.381       .  S
C1231      C1268   1.463       .  S
C1231      C1424   1.481       .  S
N1232      N1254   1.321       .  A
N1232     Co1269   2.082       .  S
C1233      C1271   1.460   1_655  S
C1233      H1278   1.081       .  S
H1234      C1275   1.082       .  S
C1235      N1259   1.340       .  A
C1235      H1264   1.081       .  S
Co1236     N1459   2.094       .  S
Co1236     N1244   2.099       .  S
Co1236     N1481   2.090       .  S
Co1236     N1252   2.090       .  S
N1237      N1244   1.322       .  A
Co1238     N1241   2.075       .  S
Co1238     N1245   2.092       .  S
C1239      C1312   1.493       .  S
C1239      N1277   1.348       .  A
N1240      N1247   1.317   1_655  A
N1240      N1270   1.323       .  A
N1240     Co1273   2.091       .  S
N1241      N1259   1.319       .  A
N1242      N1252   1.323       .  A
H1243      C1268   1.081       .  S
N1244      N1265   1.328       .  A
N1245      N1263   1.319       .  A
C1246      C1274   1.472       .  S
C1248      N1276   1.340       .  A
C1248      H1282   1.081       .  S
C1251      N1272   1.348   1_455  A
N1252      N1258   1.319       .  A
N1253      N1255   1.321       .  A
N1254      C1268   1.344       .  A
N1254     Co1441   2.094   1_554  S
N1255      N1283   1.327       .  A
N1255     Co1273   2.096       .  S
H1256      C1279   1.081       .  S
H1257      C1274   1.081       .  S
N1259     Co1478   2.088       .  S
N1260      N1276   1.320       .  A
N1260     Co1269   2.074       .  S
C1261      C1392   1.485       .  S
C1261      N1265   1.353       .  A
C1262      C1281   1.465       .  S
C1262      H1266   1.080       .  S
N1263      C1274   1.342       .  A
N1263     Co1478   2.090       .  S
C1267      N1283   1.352       .  A
Co1273     N1464   2.088   1_554  S
Co1273     N1468   2.090   1_554  S
N1276     Co1441   2.090   1_554  S
C1281      C1344   1.495       .  S
C1284      C1357   1.473       .  S
C1284      N1285   1.353       .  A
C1284      N1289   1.357       .  A
N1285      C1286   1.356       .  A
C1286      C1341   1.485       .  S
C1286      N1287   1.358       .  A
N1287      C1288   1.359       .  A
C1288      C1294   1.467       .  S
C1288      N1289   1.360       .  A
C1290      C1328   1.500       .  S
C1290      N1291   1.357       .  A
C1290      N1295   1.355       .  A
N1291      C1292   1.353       .  A
C1292      C1309   1.479       .  S
C1292      N1293   1.359       .  A
N1293      C1294   1.360       .  A
C1294      N1295   1.358       .  A
C1296      C1421   1.501   1_545  S
C1296      N1297   1.365       .  A
C1296      N1301   1.356       .  A
N1297      C1298   1.364       .  A
C1298      C1304   1.485       .  S
C1298      N1299   1.363       .  A
N1299      C1300   1.361       .  A
C1300      C1408   1.502       .  S
C1300      N1301   1.358       .  A
C1302      C1389   1.508       .  S
C1302      N1303   1.363       .  A
C1302      N1307   1.364   1_565  A
N1303      C1304   1.363   1_565  A
C1304      N1305   1.362       .  A
N1305      C1306   1.362       .  A
C1306      C1373   1.496       .  S
C1306      N1307   1.360       .  A
C1308      H1315   1.083       .  S
C1308      C1309   1.401       .  A
C1308      C1313   1.410       .  A
C1310      C1311   1.403       .  A
C1310      C1317   1.522       .  S
C1311      H1316   1.080       .  S
C1312      C1313   1.427       .  A
C1313      C1314   1.521       .  S
C1314      F1318   1.385       .  S
C1314      F1319   1.383       .  S
C1314      F1320   1.383       .  S
C1317      F1321   1.384       .  S
C1317      F1322   1.381       .  S
C1317      F1323   1.385       .  S
C1324      H1331   1.081       .  S
C1324      C1325   1.404       .  A
C1324      C1329   1.408       .  A
C1326      C1327   1.403       .  A
C1326      C1333   1.522       .  S
C1327      H1332   1.081       .  S
C1328      C1329   1.427       .  A
C1329      C1330   1.524       .  S
C1330      F1334   1.385       .  S
C1330      F1335   1.383       .  S
C1330      F1336   1.383       .  S
C1333      F1337   1.384   1_455  S
C1333      F1338   1.383       .  S
C1333      F1339   1.385       .  S
C1340      H1347   1.082       .  S
C1340      C1341   1.405       .  A
C1340      C1345   1.406       .  A
C1342      C1343   1.406       .  A
C1342      C1349   1.522       .  S
C1343      H1348   1.078       .  S
C1344      C1345   1.424       .  A
C1345      C1346   1.522       .  S
C1346      F1350   1.385       .  S
C1346      F1351   1.383       .  S
C1346      F1352   1.383       .  S
C1349      F1353   1.383       .  S
C1349      F1354   1.384       .  S
C1349      F1355   1.385       .  S
C1356      H1363   1.083       .  S
C1356      C1361   1.408       .  A
C1357      C1358   1.414       .  A
C1358      C1359   1.403       .  A
C1358      C1365   1.520       .  S
C1359      H1364   1.081       .  S
C1359      C1360   1.406       .  A
C1361      C1362   1.520       .  S
C1362      F1366   1.385       .  S
C1362      F1367   1.383       .  S
C1362      F1368   1.383       .  S
C1365      F1369   1.382       .  S
C1365      F1370   1.384       .  S
C1365      F1371   1.385       .  S
C1372      H1379   1.083       .  S
C1372      C1377   1.414       .  A
C1373      C1374   1.420       .  A
C1374      C1375   1.408       .  A
C1374      C1381   1.518       .  S
C1375      H1380   1.080       .  S
C1375      C1376   1.407       .  A
C1377      C1378   1.520       .  S
C1378      F1382   1.385       .  S
C1378      F1384   1.383       .  S
C1381      F1385   1.379       .  S
C1381      F1386   1.384       .  S
C1381      F1387   1.385       .  S
C1388      H1395   1.075       .  S
C1388      C1389   1.410   1_545  A
C1388      C1393   1.406       .  A
C1389      C1390   1.428       .  A
C1390      C1391   1.416       .  A
C1390      C1397   1.520       .  S
C1391      C1392   1.404       .  A
C1392      C1393   1.410   1_565  A
C1393      C1394   1.520       .  S
C1394      F1398   1.384       .  S
C1394      F1399   1.383   1_545  S
C1397      F1401   1.384       .  S
C1404      H1411   1.083       .  S
C1404      C1405   1.403       .  A
C1404      C1409   1.414       .  A
C1406      C1407   1.407       .  A
C1406      C1413   1.519       .  S
C1407      H1412   1.081       .  S
C1408      C1409   1.426       .  A
C1409      C1410   1.520       .  S
C1410      F1414   1.385       .  S
C1410      F1415   1.382       .  S
C1413      F1418   1.383       .  S
C1413      F1419   1.384       .  S
C1420      H1427   1.082       .  S
C1420      C1421   1.409       .  A
C1420      C1425   1.410       .  A
C1421      C1422   1.430   1_565  A
C1422      C1423   1.408       .  A
C1422      C1429   1.521       .  S
C1423      C1424   1.396   1_545  A
C1424      C1425   1.416       .  A
C1425      C1426   1.519       .  S
C1426      F1432   1.382       .  S
C1429      F1434   1.383       .  S
C1429      F1435   1.385       .  S
C1436      C1473   1.463       .  S
C1436      C1629   1.481       .  S
N1437      N1459   1.321       .  A
N1437     Co1474   2.082       .  S
C1438      C1476   1.460   1_655  S
C1438      H1483   1.081       .  S
H1439      C1480   1.082       .  S
C1440      N1464   1.340       .  A
C1440      H1469   1.081       .  S
Co1441     N1449   2.099       .  S
Co1441     N1457   2.090       .  S
N1442      N1449   1.322       .  A
Co1443     N1446   2.075       .  S
Co1443     N1450   2.092       .  S
C1444      C1517   1.493       .  S
C1444      N1482   1.348       .  A
N1445      N1452   1.317   1_655  A
N1445      N1475   1.323       .  A
N1445     Co1478   2.091       .  S
N1446      N1464   1.319       .  A
N1447      N1457   1.323       .  A
H1448      C1473   1.081       .  S
N1449      N1470   1.328       .  A
N1450      N1468   1.319       .  A
C1451      C1479   1.472       .  S
C1453      N1481   1.340       .  A
C1453      H1487   1.081       .  S
C1456      N1477   1.348   1_455  A
N1457      N1463   1.319       .  A
N1458      N1460   1.321       .  A
N1459      C1473   1.344       .  A
N1460      N1488   1.327       .  A
N1460     Co1478   2.096       .  S
H1461      C1484   1.081       .  S
H1462      C1479   1.081       .  S
N1465      N1481   1.320       .  A
N1465     Co1474   2.074       .  S
C1466      C1597   1.485       .  S
C1466      N1470   1.353       .  A
C1467      C1486   1.465       .  S
C1467      H1471   1.080       .  S
N1468      C1479   1.342       .  A
C1472      N1488   1.352       .  A
C1486      C1549   1.495       .  S
C1489      C1562   1.473       .  S
C1489      N1490   1.353       .  A
C1489      N1494   1.357       .  A
N1490      C1491   1.356       .  A
C1491      C1546   1.485       .  S
C1491      N1492   1.358       .  A
N1492      C1493   1.359       .  A
C1493      C1499   1.467       .  S
C1493      N1494   1.360       .  A
C1495      C1533   1.500       .  S
C1495      N1496   1.357       .  A
C1495      N1500   1.355       .  A
N1496      C1497   1.353       .  A
C1497      C1514   1.479       .  S
C1497      N1498   1.359       .  A
N1498      C1499   1.360       .  A
C1499      N1500   1.358       .  A
C1501      C1626   1.501   1_545  S
C1501      N1502   1.365       .  A
C1501      N1506   1.356       .  A
N1502      C1503   1.364       .  A
C1503      C1509   1.485       .  S
C1503      N1504   1.363       .  A
N1504      C1505   1.361       .  A
C1505      C1613   1.502       .  S
C1505      N1506   1.358       .  A
C1507      C1594   1.508       .  S
C1507      N1508   1.363       .  A
C1507      N1512   1.364   1_565  A
N1508      C1509   1.363   1_565  A
C1509      N1510   1.362       .  A
N1510      C1511   1.362       .  A
C1511      C1578   1.496       .  S
C1511      N1512   1.360       .  A
C1513      H1520   1.083       .  S
C1513      C1514   1.401       .  A
C1513      C1518   1.410       .  A
C1515      C1516   1.403       .  A
C1515      C1522   1.522       .  S
C1516      H1521   1.080       .  S
C1517      C1518   1.427       .  A
C1518      C1519   1.521       .  S
C1519      F1523   1.385       .  S
C1519      F1524   1.383       .  S
C1519      F1525   1.383       .  S
C1522      F1526   1.384       .  S
C1522      F1527   1.381       .  S
C1522      F1528   1.385       .  S
C1529      H1536   1.081       .  S
C1529      C1530   1.404       .  A
C1529      C1534   1.408       .  A
C1531      C1532   1.403       .  A
C1531      C1538   1.522       .  S
C1532      H1537   1.081       .  S
C1533      C1534   1.427       .  A
C1534      C1535   1.524       .  S
C1535      F1539   1.385       .  S
C1535      F1540   1.383       .  S
C1535      F1541   1.383       .  S
C1538      F1542   1.384   1_455  S
C1538      F1543   1.383       .  S
C1538      F1544   1.385       .  S
C1545      H1552   1.082       .  S
C1545      C1546   1.405       .  A
C1545      C1550   1.406       .  A
C1547      C1548   1.406       .  A
C1547      C1554   1.522       .  S
C1548      H1553   1.078       .  S
C1549      C1550   1.424       .  A
C1550      C1551   1.522       .  S
C1551      F1555   1.385       .  S
C1551      F1556   1.383       .  S
C1551      F1557   1.383       .  S
C1554      F1558   1.383       .  S
C1554      F1559   1.384       .  S
C1554      F1560   1.385       .  S
C1561      H1568   1.083       .  S
C1561      C1566   1.408       .  A
C1562      C1563   1.414       .  A
C1563      C1564   1.403       .  A
C1563      C1570   1.520       .  S
C1564      H1569   1.081       .  S
C1564      C1565   1.406       .  A
C1566      C1567   1.520       .  S
C1567      F1571   1.385       .  S
C1567      F1572   1.383       .  S
C1567      F1573   1.383       .  S
C1570      F1574   1.382       .  S
C1570      F1575   1.384       .  S
C1570      F1576   1.385       .  S
C1577      H1584   1.083       .  S
C1577      C1582   1.414       .  A
C1578      C1579   1.420       .  A
C1579      C1580   1.408       .  A
C1579      C1586   1.518       .  S
C1580      H1585   1.080       .  S
C1580      C1581   1.407       .  A
C1582      C1583   1.520       .  S
C1583      F1587   1.385       .  S
C1583      F1589   1.383       .  S
C1586      F1590   1.379       .  S
C1586      F1591   1.384       .  S
C1586      F1592   1.385       .  S
C1593      H1600   1.075       .  S
C1593      C1594   1.410   1_545  A
C1593      C1598   1.406       .  A
C1594      C1595   1.428       .  A
C1595      C1596   1.416       .  A
C1595      C1602   1.520       .  S
C1596      C1597   1.404       .  A
C1597      C1598   1.410   1_565  A
C1598      C1599   1.520       .  S
C1599      F1603   1.384       .  S
C1599      F1604   1.383   1_545  S
C1602      F1606   1.384       .  S
C1609      H1616   1.083       .  S
C1609      C1610   1.403       .  A
C1609      C1614   1.414       .  A
C1611      C1612   1.407       .  A
C1611      C1618   1.519       .  S
C1612      H1617   1.081       .  S
C1613      C1614   1.426       .  A
C1614      C1615   1.520       .  S
C1615      F1619   1.385       .  S
C1615      F1620   1.382       .  S
C1618      F1623   1.383       .  S
C1618      F1624   1.384       .  S
C1625      H1632   1.082       .  S
C1625      C1626   1.409       .  A
C1625      C1630   1.410       .  A
C1626      C1627   1.430   1_565  A
C1627      C1628   1.408       .  A
C1627      C1634   1.521       .  S
C1628      C1629   1.396   1_545  A
C1629      C1630   1.416       .  A
C1630      C1631   1.519       .  S
C1631      F1637   1.382       .  S
C1634      F1639   1.383       .  S
C1634      F1640   1.385       .  S
