geometry optimzed in LAMMPS
_audit_creation_date              2020-11-30 
_audit_creation_method            'lammps2cif' 
_symmetry_space_group_name_H-M    'P1' 
_symmetry_Int_Tables_number       1 
_symmetry_cell_setting            triclinic 
loop_ 
_symmetry_equiv_pos_as_xyz 
  x,y,z 
_cell_length_a                    40.60566493307368 
_cell_length_b                    34.475709428348274 
_cell_length_c                    53.53217908808052 
_cell_angle_alpha                 90.3322461279031 
_cell_angle_beta                  89.88750344073934 
_cell_angle_gamma                 90.40039158826858 
loop_ 
_atom_site_label 
_atom_site_type_symbol 
_atom_site_fract_x 
_atom_site_fract_y 
_atom_site_fract_z 
_atom_site_charge 
O1          O  0.42902639  0.18726046  0.79930799    -0.75080
O2          O  0.45614097  0.13855076  0.77897935    -0.53980
C3          C  0.43364338  0.15132610  0.79412486     0.78650
O4          O  0.42767250  0.31131706  0.70407569    -0.59680
O5          O  0.45491036  0.36072564  0.72414337    -0.52710
C6          C  0.43260615  0.34724975  0.70896594     0.70670
O7          O  0.43105313  0.18537714  0.70505488    -0.74240
O8          O  0.45829017  0.13734066  0.72561088    -0.54800
C9          C  0.43643970  0.14975185  0.71014800     0.76670
O10         O  0.43036794  0.31454623  0.80041847    -0.59380
O11         O  0.45496966  0.36330879  0.77823861    -0.52500
C12         C  0.43369385  0.35037091  0.79434009     0.73260
Zr13       Zr  0.45025709  0.25078740  0.78927345     2.54710
O14         O  0.39036162  0.25025815  0.79024056    -0.79950
O15         O  0.45628447  0.24994769  0.83452250    -0.93360
Zr16       Zr  0.44949171  0.24947379  0.71585610     2.64680
O17         O  0.38962461  0.24485065  0.71412020    -0.98320
O18         O  0.45706301  0.25165158  0.67075412    -0.80380
O19         O  0.44950298  0.21211758  0.75270701    -0.83740
O20         O  0.44864152  0.28805920  0.75241286    -2.18450
O21         O  0.06302615  0.31658134  0.79979138    -0.67130
O22         O  0.03664050  0.36450593  0.77849695    -0.51690
C23         C  0.05835463  0.35231452  0.79433900     0.71640
O24         O  0.06408661  0.18725308  0.70450675    -0.60030
O25         O  0.03695987  0.13847806  0.72499489    -0.52010
C26         C  0.05886546  0.15134373  0.70945551     0.73450
O27         O  0.06229621  0.31485605  0.70200314    -0.71430
O28         O  0.03487214  0.36293624  0.72298717    -0.50110
C29         C  0.05652127  0.35061089  0.70700012     0.74830
O30         O  0.06579722  0.18814420  0.79795859    -0.66760
O31         O  0.03819511  0.13871925  0.77833066    -0.53960
C32         C  0.06086755  0.15201543  0.79304936     0.73210
Zr33       Zr  0.04517191  0.25205975  0.78821867     2.77540
O34         O  0.10520620  0.25369953  0.78727659    -0.97510
O35         O  0.04235362  0.25102998  0.83364791    -0.78330
Zr36       Zr  0.04428465  0.25114090  0.71504169     2.70070
O37         O  0.10421404  0.25347155  0.71443112    -0.79580
O38         O  0.03864607  0.24817154  0.66977639    -0.98660
Zr39       Zr  0.99747531  0.17250465  0.75246917     2.21500
Zr40       Zr  0.49618475  0.32946305  0.75171962     2.11130
O41         O  0.04468704  0.28999505  0.75152235    -2.47350
O42         O  0.04535012  0.21333503  0.75172905    -0.79370
O43         O  0.49744761  0.29136843  0.78924618    -0.71560
O44         O  0.99711371  0.21048526  0.71497792    -2.32520
O45         O  0.99789665  0.21159459  0.78973781    -2.28730
O46         O  0.49651810  0.29016294  0.71459047    -0.73320
H47         H  0.42863643  0.30302546  0.75246564     0.78670
H48         H  0.99717329  0.19392513  0.70036110     0.79760
H49         H  0.06423053  0.30610244  0.75121149     0.81990
H50         H  0.99823713  0.19541778  0.80440789     0.79590
H51         H  0.47072819  0.22881850  0.66665546     0.42630
H52         H  0.02925959  0.27354142  0.66510130     0.41600
H53         H  0.11089369  0.23912258  0.72954508     0.41280
H54         H  0.11092723  0.27239882  0.77396580     0.39210
H55         H  0.03250664  0.27623525  0.83835551     0.42340
H56         H  0.47683480  0.23557370  0.83768196     0.37130
H57         H  0.38381661  0.24490298  0.77274520     0.43240
H58         H  0.38156772  0.26632011  0.72481428     0.39660
H59         H  0.11183645  0.26691610  0.80296605     0.44580
H60         H  0.43860628  0.23226082  0.84037066     0.43300
H61         H  0.38382291  0.25249686  0.69688444     0.43440
H62         H  0.06154661  0.24905598  0.66340167     0.43790
C63         C  0.37314642  0.11791374  0.84301441     0.03350
C64         C  0.35348738  0.09226546  0.82920773    -0.12800
C65         C  0.36037325  0.08392964  0.80411797     0.00850
C66         C  0.38948971  0.09908397  0.79316197    -0.11330
C67         C  0.41009853  0.12462447  0.80692614     0.03340
C68         C  0.40155525  0.13356010  0.83194036    -0.10750
H69         H  0.33073536  0.08169592  0.83747108     0.08930
H70         H  0.39411507  0.09447324  0.77345119     0.06460
H71         H  0.41518199  0.15586452  0.84195291     0.06310
O72         O  0.30356791  0.08030296  0.69863777    -0.75080
O73         O  0.34071900  0.04516438  0.72094360    -0.53980
C74         C  0.33312541  0.07181790  0.70537525     0.78650
O75         O  0.19048909  0.07347787  0.79487477    -0.59680
O76         O  0.15120199  0.04367207  0.77101040    -0.52710
C77         C  0.16023086  0.06676379  0.78862330     0.70670
O78         O  0.30397201  0.07280361  0.79483298    -0.74240
O79         O  0.34257652  0.03998787  0.77227860    -0.54800
C80         C  0.33414054  0.06436913  0.78927474     0.76670
O81         O  0.19194164  0.08198970  0.69681797    -0.59380
O82         O  0.15343654  0.04777851  0.71883878    -0.52500
C83         C  0.16192869  0.07427768  0.70325534     0.73260
Zr84       Zr  0.24725040  0.05875424  0.70792596     2.54710
O85         O  0.24831239  0.12923116  0.70574648    -0.79950
O86         O  0.24791723  0.05201477  0.66260531    -0.93360
Zr87       Zr  0.24696349  0.05672368  0.78258099     2.64680
O88         O  0.24836077  0.12734069  0.78328739    -0.98320
O89         O  0.24642561  0.05549437  0.82805985    -0.80380
O90         O  0.27868675  0.05814349  0.74543647    -0.83740
O91         O  0.21564858  0.05930627  0.74525872    -2.18450
O92         O  0.18844141  0.42468933  0.69404652    -0.67130
O93         O  0.15125619  0.45769210  0.71804643    -0.51690
C94         C  0.15869750  0.43253361  0.70121200     0.71640
O95         O  0.30010531  0.42165222  0.79227388    -0.60030
O96         O  0.34006451  0.45498788  0.77130963    -0.52010
C97         C  0.33055940  0.42953300  0.78728539     0.73450
O98         O  0.18757748  0.42921941  0.79396778    -0.71430
O99         O  0.14927845  0.46133755  0.77106016    -0.50110
C100        C  0.15755836  0.43795696  0.78848396     0.74830
O101        O  0.30226729  0.42318860  0.69533769    -0.66760
O102        O  0.34004566  0.45576099  0.71931465    -0.53960
C103        C  0.33207627  0.43072149  0.70258770     0.73210
Zr104      Zr  0.24547687  0.44393917  0.70583803     2.77540
O105        O  0.24512209  0.37347448  0.70257554    -0.97510
O106        O  0.24679900  0.45158691  0.66066046    -0.78330
Zr107      Zr  0.24445401  0.44173059  0.78046423     2.70070
O108        O  0.24046484  0.37140313  0.77735464    -0.79580
O109        O  0.24634730  0.43817656  0.82586782    -0.98660
Zr110      Zr  0.30913568  0.49932298  0.74524529     2.21500
Zr111      Zr  0.18293890  0.50154983  0.74409818     2.11130
O112        O  0.21335000  0.44248413  0.74308509    -2.47350
O113        O  0.27660546  0.44156764  0.74344602    -0.79370
O114        O  0.21384914  0.00190628  0.70613253    -0.71560
O115        O  0.27756905  0.49851854  0.78275398    -2.32520
O116        O  0.27887681  0.50093557  0.70691533    -2.28730
O117        O  0.21372865  0.49987559  0.78196052    -0.73320
H118        H  0.20201193  0.08213589  0.74570845     0.78670
H119        H  0.29155506  0.49764587  0.79731169     0.79760
H120        H  0.19877900  0.42022153  0.74293568     0.81990
H121        H  0.29363139  0.00126940  0.69273628     0.79590
H122        H  0.26181078  0.03451294  0.83255139     0.42630
H123        H  0.23036347  0.45783305  0.83169215     0.41600
H124        H  0.25288797  0.36482554  0.76198804     0.41280
H125        H  0.22695104  0.36496500  0.71366771     0.39210
H126        H  0.22733966  0.46765238  0.65686274     0.42340
H127        H  0.27134718  0.04801204  0.65820101     0.37130
H128        H  0.24870352  0.13784238  0.72342106     0.43240
H129        H  0.22852002  0.13522285  0.77392754     0.39660
H130        H  0.23706797  0.36792986  0.68546716     0.44580
H131        H  0.24289345  0.07829843  0.65637442     0.43300
H132        H  0.24347368  0.13436601  0.80086478     0.43440
H133        H  0.23591365  0.41294724  0.82995768     0.43790
C134        C  0.11910412  0.38632040  0.84281880     0.03350
C135        C  0.13865768  0.41160672  0.82879832    -0.12800
C136        C  0.13136052  0.41959083  0.80379222     0.00850
C137        C  0.10204371  0.40455412  0.79317815    -0.11330
C138        C  0.08155694  0.37942150  0.80715036     0.03340
C139        C  0.09040631  0.37079909  0.83206449    -0.10750
H140        H  0.16160962  0.42211117  0.83678345     0.08930
H141        H  0.09730643  0.40862097  0.77345601     0.06460
H142        H  0.07684502  0.34867812  0.84216722     0.06310
C143        C  0.36953726  0.37633202  0.84123838     0.03350
C144        C  0.40108854  0.36860066  0.83168581    -0.12800
C145        C  0.40907937  0.37625881  0.80648620     0.00850
C146        C  0.38678449  0.39792120  0.79198166    -0.11330
C147        C  0.35586480  0.40868262  0.80201149     0.03340
C148        C  0.34752149  0.39695514  0.82630601    -0.10750
H149        H  0.41874635  0.35367724  0.84310830     0.08930
H150        H  0.39213689  0.40330042  0.77247161     0.06460
H151        H  0.32317481  0.40321678  0.83355876     0.06310
C152        C  0.12049951  0.12085785  0.84168304     0.03350
C153        C  0.09120839  0.13363245  0.83092672    -0.12800
C154        C  0.08399098  0.12552771  0.80573031     0.00850
C155        C  0.10535565  0.10122507  0.79198871    -0.11330
C156        C  0.13446464  0.08711320  0.80315402     0.03340
C157        C  0.14133937  0.09671001  0.82807390    -0.10750
H158        H  0.07570257  0.15338536  0.84141584     0.08930
H159        H  0.10108772  0.09651371  0.77224301     0.06460
H160        H  0.16428766  0.08762506  0.83648966     0.06310
C161        C  0.10770946  0.12082662  0.65389565     0.03350
C162        C  0.07961076  0.12803813  0.66905209    -0.12800
C163        C  0.08022772  0.12474827  0.69509535     0.00850
C164        C  0.10712193  0.10680169  0.70630563    -0.11330
C165        C  0.13479535  0.09668330  0.69185516     0.03340
C166        C  0.13602913  0.10734277  0.66648232    -0.10750
H167        H  0.05682504  0.13832016  0.66121556     0.08930
H168        H  0.10754779  0.10314264  0.72638193     0.06460
H169        H  0.15933530  0.10492454  0.65739737     0.06310
C170        C  0.09735436  0.39898869  0.65196111     0.03350
C171        C  0.12653362  0.41291860  0.66332146    -0.12800
C172        C  0.13055822  0.41185169  0.68931527     0.00850
C173        C  0.10585153  0.39430868  0.70407461    -0.11330
C174        C  0.07746683  0.37815745  0.69295247     0.03340
C175        C  0.07313714  0.38135028  0.66698743    -0.10750
H176        H  0.14500498  0.42750306  0.65205234     0.08930
H177        H  0.10930065  0.39197570  0.72408307     0.06460
H178        H  0.05052749  0.37072231  0.65870622     0.06310
C179        C  0.38766852  0.11641576  0.65602191     0.03350
C180        C  0.35999227  0.10055134  0.66806875    -0.12800
C181        C  0.36056821  0.09329910  0.69380290     0.00850
C182        C  0.38797067  0.10529814  0.70803049    -0.11330
C183        C  0.41503807  0.12296070  0.69628926     0.03340
C184        C  0.41547277  0.12600165  0.67023919    -0.10750
H185        H  0.33887080  0.09138355  0.65710971     0.08930
H186        H  0.38733494  0.10301241  0.72819249     0.06460
H187        H  0.43754073  0.13679966  0.66117175     0.06310
C188        C  0.39287159  0.39621063  0.65387028     0.03350
C189        C  0.41464874  0.37494249  0.66885988    -0.12800
C190        C  0.41091728  0.37345367  0.69484017     0.00850
C191        C  0.38313714  0.39073880  0.70580285    -0.11330
C192        C  0.35972600  0.40988113  0.69083331     0.03340
C193        C  0.36519278  0.41331687  0.66502594    -0.10750
H194        H  0.43591481  0.36131572  0.66031259     0.08930
H195        H  0.37927299  0.38849446  0.72577872     0.06460
H196        H  0.34947583  0.43205238  0.65420741     0.06310
O197        O  0.31032802  0.32774382  0.95168507    -0.75080
O198        O  0.28138533  0.29152421  0.92331812    -0.53980
C199        C  0.30335828  0.31697844  0.92921252     0.78650
O200        O  0.31215252  0.17850106  0.03492857    -0.59680
O201        O  0.27994069  0.21120115  0.06292749    -0.52710
C202        C  0.30331361  0.18783663  0.05727548     0.70670
O203        O  0.31175108  0.17697847  0.94979937    -0.74240
O204        O  0.28106822  0.21171804  0.92285312    -0.54800
C205        C  0.30362975  0.18712262  0.92743964     0.76670
O206        O  0.30826399  0.32814356  0.03680147    -0.59380
O207        O  0.27589727  0.29421186  0.06352817    -0.52500
C208        C  0.29878104  0.31890967  0.05900287     0.73260
Zr209      Zr  0.29180236  0.31089495  0.99384124     2.54710
O210        O  0.35166942  0.31447340  0.99460619    -0.79950
O211        O  0.28693534  0.38118316  0.99502795    -0.93360
Zr212      Zr  0.29385431  0.19401281  0.99257092     2.64680
O213        O  0.35376768  0.19445346  0.99073584    -0.98320
O214        O  0.29172241  0.12343283  0.99345504    -0.80380
O215        O  0.29360595  0.25273646  0.96975900    -0.83740
O216        O  0.29343156  0.25228092  0.01662858    -2.18450
O217        O  0.17809128  0.32840869  0.03608169    -0.67130
O218        O  0.20736578  0.29185570  0.06331188    -0.51690
C219        C  0.18626916  0.31829679  0.05844210     0.71640
O220        O  0.17600862  0.17547816  0.95154595    -0.60030
O221        O  0.20742740  0.20850976  0.92345063    -0.52010
C222        C  0.18428118  0.18442965  0.92912338     0.73450
O223        O  0.17769381  0.17309150  0.03600622    -0.71430
O224        O  0.20776552  0.20975804  0.06315152    -0.50110
C225        C  0.18588780  0.18386511  0.05825956     0.74830
O226        O  0.17734067  0.32612796  0.94988731    -0.66760
O227        O  0.20786245  0.29067522  0.92276620    -0.53960
C228        C  0.18591622  0.31606642  0.92746613     0.73210
Zr229      Zr  0.19286679  0.30823763  0.99301689     2.77540
O230        O  0.13305927  0.30289680  0.99221099    -0.97510
O231        O  0.19097046  0.37875514  0.99267829    -0.78330
Zr232      Zr  0.19494521  0.19137339  0.99351182     2.70070
O233        O  0.13510710  0.18702444  0.99423311    -0.79580
O234        O  0.20007747  0.12108999  0.99234520    -0.98660
Zr235      Zr  0.24383279  0.25087817  0.94683580     2.21500
Zr236      Zr  0.24302337  0.25098290  0.03913715     2.11130
O237        O  0.19278612  0.25005532  0.01670570    -2.47350
O238        O  0.19370932  0.24945287  0.96967972    -0.79370
O239        O  0.24205505  0.31034098  0.01708370    -0.71560
O240        O  0.24421601  0.19158042  0.96920188    -2.32520
O241        O  0.24273472  0.31032756  0.96959608    -2.28730
O242        O  0.24455310  0.19144920  0.01685444    -0.73320
H243        H  0.31218959  0.25299615  0.02768337     0.78670
H244        H  0.24434945  0.16958607  0.95793975     0.79760
H245        H  0.17402689  0.24971409  0.02782571     0.81990
H246        H  0.24272127  0.33226451  0.95845357     0.79590
H247        H  0.27651172  0.11606836  0.97976935     0.42630
H248        H  0.21436448  0.11494061  0.00673662     0.41600
H249        H  0.12770590  0.21217413  0.98748894     0.41280
H250        H  0.12750021  0.28454426  0.00575354     0.39210
H251        H  0.21136051  0.38702511  0.00137751     0.42340
H252        H  0.27411345  0.38773627  0.97994266     0.37130
H253        H  0.35886255  0.28976988  0.98688709     0.43240
H254        H  0.36051361  0.21620124  0.00178634     0.39660
H255        H  0.12522233  0.32835731  0.99834510     0.44580
H256        H  0.30947867  0.39087935  0.99154879     0.43300
H257        H  0.36051568  0.17079133  0.99972449     0.43440
H258        H  0.17801466  0.11130303  0.99722106     0.43790
C259        C  0.13247684  0.37777851  0.15157397     0.03350
C260        C  0.14323871  0.41150270  0.16391066    -0.12800
C261        C  0.13566162  0.41799027  0.18932761     0.00850
C262        C  0.11447445  0.39219783  0.20161354    -0.11330
C263        C  0.10237844  0.35933030  0.18897398     0.03340
C264        C  0.11126382  0.35222731  0.16405283    -0.10750
H265        H  0.16036822  0.43075226  0.15447564     0.08930
H266        H  0.10885560  0.39643156  0.22124689     0.06460
H267        H  0.10240243  0.32627847  0.15461956     0.06310
C268        C  0.35561718  0.13697404  0.15132471     0.03350
C269        C  0.37205492  0.16781716  0.16376743    -0.12800
C270        C  0.38034276  0.16521001  0.18911938     0.00850
C271        C  0.36948246  0.13323380  0.20302974    -0.11330
C272        C  0.35293086  0.10261065  0.19109925     0.03340
C273        C  0.34956529  0.10303813  0.16504512    -0.10750
H274        H  0.37865175  0.19412134  0.15395219     0.08930
H275        H  0.37349140  0.13245688  0.22300314     0.06460
H276        H  0.33969585  0.07755881  0.15621904     0.06310
C277        C  0.35688571  0.37806759  0.15041815     0.03350
C278        C  0.34181578  0.40885028  0.16297213    -0.12800
C279        C  0.34909295  0.41652695  0.18822720     0.00850
C280        C  0.37198776  0.39345087  0.20067268    -0.11330
C281        C  0.38738229  0.36307864  0.18783694     0.03340
C282        C  0.38099119  0.35660935  0.16253387    -0.10750
H283        H  0.32219256  0.42445308  0.15378727     0.08930
H284        H  0.37649399  0.39770772  0.22046285     0.06460
H285        H  0.39283959  0.33277654  0.15281530     0.06310
O286        O  0.18867270  0.43564854  0.19881651    -0.75080
O287        O  0.14823215  0.46675198  0.22063370    -0.53980
C288        C  0.15849998  0.44235428  0.20392465     0.78650
O289        O  0.29565931  0.42774800  0.29507674    -0.59680
O290        O  0.33626898  0.46020890  0.27391600    -0.52710
C291        C  0.32567655  0.43397635  0.28912773     0.70670
O292        O  0.18909936  0.42719818  0.29342194    -0.74240
O293        O  0.14908899  0.46414008  0.27551390    -0.54800
C294        C  0.15909194  0.43555153  0.28896898     0.76670
O295        O  0.29600782  0.43481947  0.19751269    -0.59380
O296        O  0.33741242  0.46456956  0.21931300    -0.52500
C297        C  0.32640161  0.44077759  0.20257694     0.73260
Zr298      Zr  0.24268228  0.45528185  0.21104805     2.54710
O299        O  0.24156613  0.38475385  0.20887572    -0.79950
O300        O  0.24392070  0.46482386  0.16596060    -0.93360
Zr301      Zr  0.24277604  0.45310322  0.28474486     2.64680
O302        O  0.23979342  0.38285034  0.28929922    -0.98320
O303        O  0.24234869  0.46341460  0.32979782    -0.80380
O304        O  0.21075089  0.45364390  0.24796042    -0.83740
O305        O  0.27465496  0.45203100  0.24761150    -2.18450
O306        O  0.29921677  0.08591037  0.20055458    -0.67130
O307        O  0.33974179  0.05294912  0.22085205    -0.51690
C308        C  0.32953397  0.07847464  0.20518878     0.71640
O309        O  0.19434771  0.09587111  0.29332852    -0.60030
O310        O  0.15264976  0.06222718  0.27409687    -0.52010
C311        C  0.16407128  0.09021380  0.28779936     0.73450
O312        O  0.30125829  0.08810820  0.29486227    -0.71430
O313        O  0.34058254  0.05404688  0.27362723    -0.50110
C314        C  0.33115382  0.08113235  0.28863889     0.74830
O315        O  0.18898856  0.08819967  0.20216698    -0.66760
O316        O  0.14798167  0.05507584  0.22234432    -0.53960
C317        C  0.15850976  0.08069273  0.20676379     0.73210
Zr318      Zr  0.24403204  0.06698900  0.21267475     2.77540
O319        O  0.24418733  0.13750966  0.21006232    -0.97510
O320        O  0.24226103  0.05475652  0.16794342    -0.78330
Zr321      Zr  0.24611521  0.06451215  0.28654511     2.70070
O322        O  0.24982086  0.13284285  0.29796379    -0.79580
O323        O  0.24407442  0.04924023  0.33086651    -0.98660
Zr324      Zr  0.17843383  0.01094673  0.24909456     2.21500
Zr325      Zr  0.30902662  0.00853652  0.24796939     2.11130
O326        O  0.27682167  0.06637904  0.24905816    -2.47350
O327        O  0.21329504  0.06699251  0.25003494    -0.79370
O328        O  0.27672799  0.01072931  0.21094077    -0.71560
O329        O  0.21039061  0.00977966  0.28676377    -2.32520
O330        O  0.21007574  0.01149282  0.21151796    -2.28730
O331        O  0.27836670  0.00785555  0.28622301    -0.73320
H332        H  0.28751505  0.42859309  0.24691029     0.78670
H333        H  0.19641738  0.00990177  0.30139693     0.79760
H334        H  0.29058472  0.08931866  0.24884239     0.81990
H335        H  0.19611464  0.01202611  0.19693623     0.79590
H336        H  0.21932987  0.45818667  0.33498081     0.42630
H337        H  0.26713176  0.05215003  0.33661366     0.41600
H338        H  0.25234882  0.14646911  0.28183196     0.41280
H339        H  0.26176780  0.14607819  0.22168051     0.39210
H340        H  0.26221300  0.03928692  0.16451405     0.42340
H341        H  0.22062449  0.46474261  0.16055730     0.37130
H342        H  0.23262248  0.37663295  0.22526832     0.43240
H343        H  0.25649633  0.37242285  0.27760346     0.39660
H344        H  0.25295077  0.14342865  0.19323886     0.44580
H345        H  0.25322108  0.44063244  0.15894434     0.43300
H346        H  0.24858956  0.37754293  0.30617271     0.43440
H347        H  0.23239803  0.07141266  0.33858198     0.43790
O348        O  0.04799464  0.34370922  0.19640458    -0.75080
O349        O  0.08731098  0.30588512  0.21445047    -0.53980
C350        C  0.07786332  0.33451085  0.20085678     0.78650
O351        O  0.44159471  0.33661057  0.29364401    -0.59680
O352        O  0.40008889  0.30947983  0.27058693    -0.52710
C353        C  0.41125902  0.33227480  0.28794977     0.70670
O354        O  0.04837234  0.33445529  0.29122425    -0.74240
O355        O  0.08829544  0.30321668  0.26897959    -0.54800
C356        C  0.07843141  0.32750704  0.28584524     0.76670
O357        O  0.44095528  0.34468965  0.19468830    -0.59380
O358        O  0.40005202  0.31188285  0.21534268    -0.52500
C359        C  0.41081803  0.33826379  0.20032401     0.73260
Zr360      Zr  0.99378305  0.31883943  0.20506455     2.54710
O361        O  0.99459170  0.38904404  0.20059878    -0.79950
O362        O  0.49457351  0.30864194  0.15999657    -0.93360
Zr363      Zr  0.99411260  0.31620916  0.27872747     2.64680
O364        O  0.99639192  0.38685110  0.27905459    -0.98320
O365        O  0.49467218  0.31141596  0.32411526    -0.80380
O366        O  0.02597304  0.31801810  0.24182882    -0.83740
O367        O  0.46195877  0.31998934  0.24220663    -2.18450
O368        O  0.43470786  0.18520454  0.19317554    -0.67130
O369        O  0.39574357  0.21835105  0.21550323    -0.51690
C370        C  0.40486461  0.19194934  0.19980356     0.71640
O371        O  0.04405768  0.18015914  0.28721734    -0.60030
O372        O  0.08521700  0.21325407  0.26713241    -0.52010
C373        C  0.07438496  0.18729634  0.28237480     0.73450
O374        O  0.43562208  0.18701385  0.28933144    -0.71430
O375        O  0.39565977  0.22023863  0.26862417    -0.50110
C376        C  0.40549465  0.19486995  0.28452230     0.74830
O377        O  0.04420116  0.17935243  0.19376612    -0.66760
O378        O  0.08505153  0.21182326  0.21480198    -0.53960
C379        C  0.07446048  0.18508448  0.19984441     0.73210
Zr380      Zr  0.49040699  0.20681119  0.20262899     2.77540
O381        O  0.98951534  0.13703202  0.19508837    -0.97510
O382        O  0.49125694  0.21997760  0.15799328    -0.78330
Zr383      Zr  0.49062574  0.20398356  0.27643200     2.70070
O384        O  0.48696566  0.13352899  0.27501447    -0.79580
O385        O  0.99291494  0.20667774  0.32188277    -0.98660
Zr386      Zr  0.05721201  0.25991083  0.24073142     2.21500
Zr387      Zr  0.42712253  0.26394726  0.24157613     2.11130
O388        O  0.45861534  0.20552422  0.23984407    -2.47350
O389        O  0.02241565  0.20391174  0.23945847    -0.79370
O390        O  0.45839017  0.26402762  0.20351938    -0.71560
O391        O  0.02540554  0.25899370  0.27825339    -2.32520
O392        O  0.02567662  0.26181508  0.20299444    -2.28730
O393        O  0.45926800  0.26120283  0.27872832    -0.73320
H394        H  0.44918872  0.34349183  0.24293212     0.78670
H395        H  0.03934308  0.25782998  0.29282703     0.79760
H396        H  0.44452337  0.18285377  0.23991832     0.81990
H397        H  0.03981054  0.26188982  0.18845191     0.79590
H398        H  0.01291849  0.29353277  0.32796566     0.42630
H399        H  0.47384670  0.22272858  0.32687465     0.41600
H400        H  0.99152852  0.12677357  0.25734753     0.41280
H401        H  0.47295317  0.12658303  0.20691530     0.39210
H402        H  0.46800401  0.22518660  0.15368927     0.42340
H403        H  0.01792630  0.31207178  0.15507658     0.37130
H404        H  0.99384442  0.39904398  0.21796528     0.43240
H405        H  0.47638486  0.39511741  0.27004615     0.39660
H406        H  0.47943115  0.13371154  0.17837520     0.44580
H407        H  0.98334455  0.33160616  0.15309758     0.43300
H408        H  0.99227578  0.39423538  0.29668685     0.43440
H409        H  0.48698384  0.18011805  0.32730531     0.43790
C410        C  0.12873776  0.13609735  0.15213034     0.03350
C411        C  0.14084548  0.10526258  0.16613450    -0.12800
C412        C  0.13510592  0.10326237  0.19190743     0.00850
C413        C  0.11324674  0.12949423  0.20312234    -0.11330
C414        C  0.09839895  0.15845250  0.18863647     0.03340
C415        C  0.10640421  0.16186074  0.16321267    -0.10750
H416        H  0.15756725  0.08486600  0.15743162     0.08930
H417        H  0.10865197  0.12825169  0.22301259     0.06460
H418        H  0.09653527  0.18561728  0.15243424     0.06310
C419        C  0.11459607  0.14036074  0.33744931     0.03350
C420        C  0.13992687  0.11983791  0.32539467    -0.12800
C421        C  0.14118492  0.11744753  0.29930021     0.00850
C422        C  0.12110770  0.14119473  0.28487023    -0.11330
C423        C  0.09773632  0.16453767  0.29669806     0.03340
C424        C  0.09318478  0.16202848  0.32261026    -0.10750
H425        H  0.15742298  0.10327092  0.33614142     0.08930
H426        H  0.12309814  0.14076173  0.26471627     0.06460
H427        H  0.07217852  0.17620172  0.33098861     0.06310
C428        C  0.37718400  0.13596258  0.33793849     0.03350
C429        C  0.36311751  0.10457534  0.32477207    -0.12800
C430        C  0.35531672  0.10783267  0.29945116     0.00850
C431        C  0.36529760  0.14074248  0.28611316    -0.11330
C432        C  0.38192012  0.17093168  0.29842399     0.03340
C433        C  0.38544353  0.16964373  0.32446275    -0.10750
H434        H  0.35747156  0.07766824  0.33414074     0.08930
H435        H  0.36115996  0.14219500  0.26617131     0.06460
H436        H  0.39746897  0.19388737  0.33370907     0.06310
C437        C  0.10702958  0.38945187  0.33874846     0.03350
C438        C  0.12778089  0.41545411  0.32621193    -0.12800
C439        C  0.13525988  0.40980793  0.30091366     0.00850
C440        C  0.12266800  0.37741139  0.28803512    -0.11330
C441        C  0.10172055  0.35128278  0.30035197     0.03340
C442        C  0.09471535  0.35703642  0.32591079    -0.10750
H443        H  0.13681894  0.44115537  0.33584172     0.08930
H444        H  0.12752292  0.37395163  0.26822641     0.06460
H445        H  0.07644192  0.33884954  0.33502044     0.06310
C446        C  0.38004378  0.39737425  0.33952628     0.03350
C447        C  0.35447105  0.41607493  0.32727361    -0.12800
C448        C  0.34918651  0.40960231  0.30186045     0.00850
C449        C  0.36561570  0.37974742  0.28931368    -0.11330
C450        C  0.38896638  0.35770469  0.30207162     0.03340
C451        C  0.39651880  0.36717240  0.32717532    -0.10750
H452        H  0.34031486  0.43796118  0.33704432     0.08930
H453        H  0.36129167  0.37489939  0.26955498     0.06460
H454        H  0.41673801  0.35291472  0.33650577     0.06310
O455        O  0.06241412  0.44781814  0.53422086    -0.75080
O456        O  0.03525332  0.48642480  0.56202754    -0.53980
C457        C  0.05578651  0.45949547  0.55664161     0.78650
O458        O  0.06312983  0.10275528  0.45106654    -0.59680
O459        O  0.03236604  0.06715792  0.42347132    -0.52710
C460        C  0.05538142  0.09162791  0.42891224     0.70670
O461        O  0.06674258  0.10339093  0.53454882    -0.74240
O462        O  0.03447680  0.07251534  0.56322125    -0.54800
C463        C  0.05802402  0.09579850  0.55711847     0.76670
O464        O  0.05431147  0.44633149  0.44840231    -0.59380
O465        O  0.02346858  0.48295920  0.42259356    -0.52500
C466        C  0.04399426  0.45582322  0.42637859     0.73260
Zr467      Zr  0.04482020  0.46835198  0.49209301     2.54710
O468        O  0.10451894  0.47258436  0.48873654    -0.79950
O469        O  0.04501736  0.39772530  0.49181961    -0.93360
Zr470      Zr  0.04611330  0.08547603  0.49313069     2.64680
O471        O  0.10608865  0.08543235  0.49275901    -0.98320
O472        O  0.04394770  0.15603341  0.49266279    -0.80380
O473        O  0.04727146  0.02687927  0.51618186    -0.83740
O474        O  0.04523025  0.02703812  0.46911963    -2.18450
O475        O  0.42807627  0.45021908  0.45342111    -0.67130
O476        O  0.45668155  0.48682514  0.42544385    -0.51690
C477        C  0.43523891  0.46072367  0.43093900     0.71640
O478        O  0.42725698  0.09928451  0.53728120    -0.60030
O479        O  0.45886295  0.06510217  0.56459183    -0.52010
C480        C  0.43487675  0.08775346  0.55929402     0.73450
O481        O  0.42769629  0.10314305  0.45347912    -0.71430
O482        O  0.45810098  0.06992476  0.42466089    -0.50110
C483        C  0.43559765  0.09404446  0.43091518     0.74830
O484        O  0.43533191  0.44668786  0.53904871    -0.66760
O485        O  0.46550495  0.48531653  0.56485257    -0.53960
C486        C  0.44552998  0.45711687  0.56101250     0.73210
Zr487      Zr  0.44601843  0.46929871  0.49575484     2.77540
O488        O  0.38639700  0.47374971  0.49945939    -0.97510
O489        O  0.44463281  0.39875932  0.49425294    -0.78330
Zr490      Zr  0.44736638  0.08629320  0.49518725     2.70070
O491        O  0.38759220  0.09100325  0.49486457    -0.79580
O492        O  0.45334418  0.15654228  0.49703689    -0.98660
Zr493      Zr  0.49833265  0.02861311  0.54030605     2.21500
Zr494      Zr  0.49404764  0.02820541  0.44781296     2.11130
O495        O  0.44496237  0.02759540  0.47201123    -2.47350
O496        O  0.44731367  0.02821037  0.51891947    -0.79370
O497        O  0.49406089  0.46887548  0.47023650    -0.71560
O498        O  0.49759429  0.08770600  0.51799331    -2.32520
O499        O  0.49684274  0.46906673  0.51750282    -2.28730
O500        O  0.49585400  0.08752617  0.47026170    -0.73320
H501        H  0.06351860  0.02640559  0.45757948     0.78670
H502        H  0.49798022  0.10976536  0.52920296     0.79760
H503        H  0.42565153  0.02757170  0.46150775     0.81990
H504        H  0.49746594  0.44697007  0.52848075     0.79590
H505        H  0.03061425  0.16309999  0.50748651     0.42630
H506        H  0.46770301  0.16299965  0.48265689     0.41600
H507        H  0.37981302  0.06485682  0.49979806     0.41280
H508        H  0.37946129  0.48835457  0.48451553     0.39210
H509        H  0.46705909  0.39141179  0.48878904     0.42340
H510        H  0.03125687  0.39017595  0.50631122     0.37130
H511        H  0.11086592  0.99312237  0.50084106     0.43240
H512        H  0.11210599  0.06594067  0.47992140     0.39660
H513        H  0.37837448  0.44696080  0.49638907     0.44580
H514        H  0.06772588  0.39070736  0.49664984     0.43300
H515        H  0.11247113  0.11066750  0.48538408     0.43440
H516        H  0.43140265  0.16642840  0.49229846     0.43790
C517        C  0.39553576  0.38959765  0.38429797    -0.05560
C518        C  0.39273715  0.41376609  0.36336349     0.00360
C519        C  0.40339451  0.45300374  0.36507504    -0.08210
C520        C  0.41415210  0.46717880  0.38819860    -0.05590
C521        C  0.41783660  0.44313176  0.40912000     0.00350
C522        C  0.40859970  0.40341019  0.40716570    -0.08120
C523        C  0.41362996  0.37540702  0.42855964     0.62260
H524        H  0.38784226  0.35958495  0.38241434     0.12950
H525        H  0.42094543  0.49754095  0.38980444     0.12970
C526        C  0.40555835  0.47977847  0.34250537     0.62490
F527        F  0.40584090  0.33762613  0.42179790    -0.22670
F528        F  0.39370691  0.38566907  0.44846633    -0.20000
F529        F  0.44626132  0.37626318  0.43595398    -0.19680
F530        F  0.37482080  0.49415518  0.33680686    -0.19730
F531        F  0.41811889  0.46012186  0.32202627    -0.20050
F532        F  0.42620674  0.51115956  0.34704777    -0.22730
C533        C  0.08283879  0.40833632  0.40663939    -0.05560
C534        C  0.05754765  0.43582876  0.40353240     0.00360
C535        C  0.04717847  0.44477175  0.37853490    -0.08210
C536        C  0.06437951  0.42842858  0.35839953    -0.05590
C537        C  0.09025610  0.40271569  0.36175862     0.00350
C538        C  0.09902728  0.39112527  0.38604195    -0.08120
C539        C  0.12536823  0.36089024  0.38994474     0.62260
H540        H  0.09027622  0.40066734  0.42535947     0.12950
H541        H  0.05796386  0.43585935  0.33938668     0.12970
C542        C  0.01811851  0.47080285  0.37213938     0.62490
F543        F  0.13045192  0.35351770  0.41503310    -0.22670
F544        F  0.15476708  0.37356949  0.37966487    -0.20000
F545        F  0.11594674  0.32654648  0.37844597    -0.19680
F546        F  0.02476029  0.00885064  0.37883088    -0.19730
F547        F  0.99018925  0.45763689  0.38423512    -0.20050
F548        F  0.01111682  0.47066921  0.34681269    -0.22730
C549        C  0.41831874  0.14766726  0.37167992    -0.05560
C550        C  0.38754692  0.13173021  0.36463751     0.00360
C551        C  0.36984422  0.10908900  0.38248771    -0.08210
C552        C  0.38609231  0.09775815  0.40442115    -0.05590
C553        C  0.41753964  0.11187212  0.41029436     0.00350
C554        C  0.43281073  0.13946368  0.39476166    -0.08120
C555        C  0.46435367  0.15994146  0.40266675     0.62260
H556        H  0.43222323  0.16502346  0.35858442     0.12950
H557        H  0.37415759  0.07757844  0.41706758     0.12970
C558        C  0.33408624  0.09649138  0.37972156     0.62490
F559        F  0.47322904  0.18899198  0.38616355    -0.22670
F560        F  0.48985350  0.13372490  0.40388632    -0.20000
F561        F  0.45984980  0.17673896  0.42595752    -0.19680
F562        F  0.33259416  0.05731384  0.37402657    -0.19730
F563        F  0.31766597  0.11722537  0.36161958    -0.20050
F564        F  0.31759193  0.10259467  0.40202948    -0.22730
C565        C  0.11118878  0.09471991  0.37297305    -0.05560
C566        C  0.10648708  0.13271817  0.36425043     0.00360
C567        C  0.08988502  0.15962501  0.38012275    -0.08210
C568        C  0.07279697  0.14534504  0.40108648    -0.05590
C569        C  0.07545476  0.10647570  0.40818305     0.00350
C570        C  0.09769917  0.08207950  0.39550061    -0.08120
C571        C  0.10741925  0.04298458  0.40580964     0.62260
H572        H  0.12400898  0.07372074  0.36159411     0.12950
H573        H  0.05772936  0.16477312  0.41219384     0.12970
C574        C  0.09042971  0.20326133  0.37652573     0.62490
F575        F  0.13195453  0.02561114  0.39174752    -0.22670
F576        F  0.08055059  0.01865227  0.40591389    -0.20000
F577        F  0.11895839  0.04753624  0.42993895    -0.19680
F578        F  0.05948821  0.21572733  0.36955233    -0.19730
F579        F  0.11331532  0.21487375  0.35887800    -0.20050
F580        F  0.09881907  0.22119147  0.39884438    -0.22730
C581        C  0.19172990  0.33994747  0.10231152    -0.05560
C582        C  0.17174263  0.33807459  0.08084452     0.00360
C583        C  0.13873515  0.35142388  0.08254800    -0.08210
C584        C  0.12708184  0.36557126  0.10578967    -0.05590
C585        C  0.14705010  0.36620762  0.12718055     0.00350
C586        C  0.17984055  0.35274727  0.12553146    -0.08120
C587        C  0.20193192  0.35021181  0.14838959     0.62260
H588        H  0.21699114  0.33028573  0.10093486     0.12950
H589        H  0.10194423  0.37548244  0.10765648     0.12970
C590        C  0.11543195  0.34931275  0.06047254     0.62490
F591        F  0.23135257  0.33183677  0.14310108    -0.22670
F592        F  0.18622725  0.32951832  0.16705233    -0.20000
F593        F  0.20935087  0.38693834  0.15706960    -0.19680
F594        F  0.11343015  0.31152819  0.05176116    -0.19730
F595        F  0.12671311  0.37329418  0.04164970    -0.20050
F596        F  0.08394689  0.36102233  0.06682949    -0.22730
C597        C  0.31011024  0.31601237  0.10423639    -0.05560
C598        C  0.31511832  0.33597912  0.08157201     0.00360
C599        C  0.33393076  0.37099638  0.08188412    -0.08210
C600        C  0.34766441  0.38373314  0.10474726    -0.05590
C601        C  0.34258506  0.36318311  0.12695696     0.00350
C602        C  0.32264900  0.32945736  0.12697159    -0.08120
C603        C  0.31375661  0.30813079  0.15098489     0.62260
H604        H  0.29607775  0.28922648  0.10424417     0.12950
H605        H  0.36244810  0.40997592  0.10556365     0.12970
C606        C  0.33901059  0.39544096  0.05868096     0.62490
F607        F  0.29010313  0.27964876  0.14701827    -0.22670
F608        F  0.30125960  0.33395860  0.16840381    -0.20000
F609        F  0.34126200  0.29038253  0.16070851    -0.19680
F610        F  0.30882576  0.40451459  0.04838345    -0.19730
F611        F  0.35776875  0.37530786  0.04142969    -0.20050
F612        F  0.35523907  0.42995394  0.06399493    -0.22730
C613        C  0.19037979  0.16257203  0.10164806    -0.05560
C614        C  0.17016676  0.16601015  0.08053737     0.00360
C615        C  0.13594091  0.15797296  0.08278522    -0.08210
C616        C  0.12337325  0.14682526  0.10633154    -0.05590
C617        C  0.14367841  0.14492788  0.12750301     0.00350
C618        C  0.17770204  0.15395639  0.12527058    -0.08120
C619        C  0.20064959  0.15676370  0.14770603     0.62260
H620        H  0.21652276  0.16834098  0.09969228     0.12950
H621        H  0.09738901  0.14045335  0.10860186     0.12970
C622        C  0.11258623  0.16282262  0.06096013     0.62490
F623        F  0.22983314  0.17571061  0.14189155    -0.22670
F624        F  0.20849147  0.12012649  0.15578319    -0.20000
F625        F  0.18591824  0.17721755  0.16696479    -0.19680
F626        F  0.12040808  0.13664754  0.04224569    -0.19730
F627        F  0.11502632  0.20020424  0.05184044    -0.20050
F628        F  0.08012579  0.15632727  0.06782664    -0.22730
C629        C  0.30148033  0.14347453  0.09242325    -0.05560
C630        C  0.32001766  0.16956822  0.07842782     0.00360
C631        C  0.35162418  0.18087325  0.08658025    -0.08210
C632        C  0.36371889  0.16526666  0.10895300    -0.05590
C633        C  0.34395921  0.14198568  0.12473578     0.00350
C634        C  0.31222053  0.12972258  0.11564708    -0.08120
C635        C  0.28848253  0.10335835  0.12967095     0.62260
H636        H  0.27752086  0.13516867  0.08519788     0.12950
H637        H  0.38830432  0.17313690  0.11495531     0.12970
C638        C  0.37136650  0.21132000  0.07260662     0.62490
F639        F  0.25738352  0.10277241  0.11909588    -0.22670
F640        F  0.28478538  0.11610060  0.15397788    -0.20000
F641        F  0.29975022  0.06563692  0.12883996    -0.19680
F642        F  0.35355376  0.24533327  0.07148628    -0.19730
F643        F  0.37786504  0.19838950  0.04864513    -0.20050
F644        F  0.40108970  0.21951607  0.08418734    -0.22730
C645        C  0.40282645  0.41717138  0.58369235    -0.05560
C646        C  0.43347106  0.43670235  0.58398524     0.00360
C647        C  0.45079943  0.43961049  0.60716227    -0.08210
C648        C  0.43530132  0.42758741  0.62900507    -0.05590
C649        C  0.40474531  0.40894871  0.62892542     0.00350
C650        C  0.38840778  0.40233554  0.60585845    -0.08120
C651        C  0.35662601  0.37906859  0.60451900     0.62260
H652        H  0.38987385  0.41436897  0.56611332     0.12950
H653        H  0.44744357  0.43244824  0.64677762     0.12970
C654        C  0.48634973  0.45302080  0.60936631     0.62490
F655        F  0.34697594  0.37242967  0.58006020    -0.22670
F656        F  0.33158887  0.39872751  0.61649468    -0.20000
F657        F  0.36095119  0.34350481  0.61583124    -0.19680
F658        F  0.48866386  0.99295059  0.60748538    -0.19730
F659        F  0.50425515  0.43513943  0.59082010    -0.20050
F660        F  0.50034971  0.44269129  0.63193917    -0.22730
C661        C  0.41541050  0.13686168  0.58972691    -0.05560
C662        C  0.41354370  0.09895466  0.58018490     0.00360
C663        C  0.39497379  0.07063721  0.59310381    -0.08210
C664        C  0.38468040  0.07870145  0.61737560    -0.05590
C665        C  0.39042175  0.11486435  0.62847318     0.00350
C666        C  0.40271034  0.14579125  0.61360952    -0.08120
C667        C  0.40050564  0.18779838  0.62211389     0.62260
H668        H  0.42807027  0.15887260  0.57891229     0.12950
H669        H  0.37377658  0.05546239  0.62826370     0.12970
C670        C  0.38660084  0.03076415  0.58304303     0.62490
F671        F  0.40918283  0.21305580  0.60314459    -0.22670
F672        F  0.42103071  0.19510407  0.64206403    -0.20000
F673        F  0.36844454  0.19574614  0.62912432    -0.19680
F674        F  0.40155595  0.00378287  0.59803091    -0.19730
F675        F  0.39631887  0.02510346  0.55855894    -0.20050
F676        F  0.35288215  0.02505879  0.58424432    -0.22730
C677        C  0.09223947  0.45045760  0.62112656    -0.05560
C678        C  0.08985802  0.41077433  0.62577119     0.00360
C679        C  0.07992579  0.38547877  0.60599138    -0.08210
C680        C  0.07132883  0.40169478  0.58256469    -0.05590
C681        C  0.07252632  0.44199499  0.57858196     0.00350
C682        C  0.08442459  0.46627736  0.59798470    -0.08120
C683        C  0.08760287  0.00952456  0.59507508     0.62260
H684        H  0.09919052  0.46970176  0.63634475     0.12950
H685        H  0.06159297  0.38323086  0.56785344     0.12970
C686        C  0.07672165  0.34203663  0.60950519     0.62490
F687        F  0.11026319  0.02422440  0.61173368    -0.22670
F688        F  0.05767623  0.02679591  0.59999243    -0.20000
F689        F  0.09823234  0.01838121  0.57121229    -0.19680
F690        F  0.04653592  0.33344825  0.62016910    -0.19730
F691        F  0.10160058  0.32837085  0.62463482    -0.20050
F692        F  0.07874494  0.32269643  0.58681966    -0.22730
C693        C  0.10860687  0.10075653  0.58290718    -0.05560
C694        C  0.07679720  0.11384761  0.57787282     0.00360
C695        C  0.06253390  0.14111607  0.59413056    -0.08210
C696        C  0.07825699  0.14899366  0.61698510    -0.05590
C697        C  0.10493368  0.12634198  0.62558723     0.00350
C698        C  0.12338419  0.10612566  0.60664978    -0.08120
C699        C  0.15844960  0.09136013  0.60992269     0.62260
H700        H  0.12079950  0.08385413  0.56858820     0.12950
H701        H  0.06792316  0.17099510  0.62905170     0.12970
C702        C  0.03067595  0.16126339  0.58737875     0.62490
F703        F  0.17154556  0.07779404  0.58764012    -0.22670
F704        F  0.15962409  0.06091549  0.62656571    -0.20000
F705        F  0.17855694  0.12146557  0.61793649    -0.19680
F706        F  0.50514269  0.13456215  0.58640265    -0.19730
F707        F  0.03402354  0.17863692  0.56427530    -0.20050
F708        F  0.02244448  0.18963461  0.60465282    -0.22730
C709        C  0.13688835  0.11497246  0.88600361    -0.05560
C710        C  0.13316823  0.13856586  0.86496998     0.00360
C711        C  0.14590086  0.17690614  0.86522075    -0.08210
C712        C  0.16109024  0.19071661  0.88699123    -0.05590
C713        C  0.16542917  0.16720945  0.90802858     0.00350
C714        C  0.15306438  0.12849937  0.90767334    -0.08120
C715        C  0.15790144  0.10099956  0.92942079     0.62260
H716        H  0.12765736  0.08545269  0.88500150     0.12950
H717        H  0.16998109  0.22032944  0.88767353     0.12970
C718        C  0.14450457  0.20289629  0.84237974     0.62490
F719        F  0.14783618  0.06357335  0.92360313    -0.22670
F720        F  0.13963643  0.11336607  0.94974692    -0.20000
F721        F  0.19088288  0.09973994  0.93579053    -0.19680
F722        F  0.11221584  0.21236368  0.83744945    -0.19730
F723        F  0.15788511  0.18408948  0.82188089    -0.20050
F724        F  0.16193617  0.23714693  0.84585421    -0.22730
C725        C  0.34055685  0.38661190  0.88172282    -0.05560
C726        C  0.35743650  0.36079028  0.86577314     0.00360
C727        C  0.35718427  0.32047198  0.87168432    -0.08210
C728        C  0.34006640  0.30797692  0.89309734    -0.05590
C729        C  0.32270091  0.33373269  0.90842134     0.00350
C730        C  0.32256463  0.37366551  0.90265492    -0.08120
C731        C  0.30204613  0.40203159  0.91773382     0.62260
H732        H  0.34051594  0.41712308  0.87702181     0.12950
H733        H  0.33974363  0.27752217  0.89800891     0.12970
C734        C  0.37398034  0.29005816  0.85557278     0.62490
F735        F  0.30222609  0.43867979  0.90730386    -0.22670
F736        F  0.31444706  0.40503592  0.94167228    -0.20000
F737        F  0.26970759  0.38918288  0.91878596    -0.19680
F738        F  0.40760791  0.29280645  0.85880219    -0.19730
F739        F  0.36606352  0.29515239  0.83072525    -0.20050
F740        F  0.36452637  0.25274467  0.86201635    -0.22730
C741        C  0.16274421  0.34641276  0.86081373    -0.05560
C742        C  0.13427628  0.36808168  0.86510004     0.00360
C743        C  0.12313358  0.37381680  0.88983485    -0.08210
C744        C  0.14045419  0.35616064  0.90957565    -0.05590
C745        C  0.16928612  0.33431212  0.90542052     0.00350
C746        C  0.18123957  0.33046164  0.88029982    -0.08120
C747        C  0.21389450  0.31139400  0.87337845     0.62260
H748        H  0.17080411  0.34283222  0.84163870     0.12950
H749        H  0.13154424  0.35964355  0.92851430     0.12970
C750        C  0.09381359  0.39949000  0.89529055     0.62490
F751        F  0.22184150  0.31630863  0.84841394    -0.22670
F752        F  0.21239494  0.27192813  0.87761844    -0.20000
F753        F  0.23914160  0.32789451  0.88718605    -0.19680
F754        F  0.06585533  0.38388649  0.88439229    -0.19730
F755        F  0.09954097  0.43609485  0.88569060    -0.20050
F756        F  0.08806810  0.40325981  0.92068646    -0.22730
C757        C  0.35019822  0.14787845  0.90976955    -0.05560
C758        C  0.32152710  0.16989332  0.90540143     0.00360
C759        C  0.31094769  0.17488018  0.88008230    -0.08210
C760        C  0.32996417  0.15887545  0.86075624    -0.05590
C761        C  0.35795302  0.13665695  0.86526156     0.00350
C762        C  0.36835425  0.13070471  0.89007842    -0.08120
C763        C  0.39790839  0.10556202  0.89560674     0.62260
H764        H  0.35830478  0.14386238  0.92881762     0.12950
H765        H  0.32270772  0.16283484  0.84147942     0.12970
C766        C  0.27944415  0.19579590  0.87269097     0.62490
F767        F  0.40328158  0.10202275  0.92102100    -0.22670
F768        F  0.42584054  0.12166292  0.88498368    -0.20000
F769        F  0.39287988  0.06882217  0.88575129    -0.19680
F770        F  0.28211109  0.23488139  0.87836592    -0.19730
F771        F  0.25274255  0.17958357  0.88498279    -0.20050
F772        F  0.27305150  0.19286733  0.84733966    -0.22730
O773        O  0.42902638  0.68726047  0.79930799    -0.75080
O774        O  0.45614096  0.63855076  0.77897935    -0.53980
C775        C  0.43364337  0.65132611  0.79412487     0.78650
O776        O  0.42767250  0.81131706  0.70407569    -0.59680
O777        O  0.45491036  0.86072564  0.72414337    -0.52710
C778        C  0.43260615  0.84724975  0.70896594     0.70670
O779        O  0.43105312  0.68537714  0.70505489    -0.74240
O780        O  0.45829016  0.63734066  0.72561089    -0.54800
C781        C  0.43643970  0.64975185  0.71014800     0.76670
O782        O  0.43036794  0.81454623  0.80041847    -0.59380
O783        O  0.45496966  0.86330879  0.77823861    -0.52500
C784        C  0.43369385  0.85037092  0.79434009     0.73260
Zr785      Zr  0.45025709  0.75078741  0.78927346     2.54710
O786        O  0.39036161  0.75025816  0.79024055    -0.79950
O787        O  0.45628445  0.74994770  0.83452250    -0.93360
Zr788      Zr  0.44949171  0.74947379  0.71585610     2.64680
O789        O  0.38962461  0.74485065  0.71412020    -0.98320
O790        O  0.45706301  0.75165157  0.67075413    -0.80380
O791        O  0.44950297  0.71211759  0.75270701    -0.83740
O792        O  0.44864151  0.78805921  0.75241286    -2.18450
O793        O  0.06302614  0.81658135  0.79979138    -0.67130
O794        O  0.03664050  0.86450593  0.77849694    -0.51690
C795        C  0.05835463  0.85231453  0.79433899     0.71640
O796        O  0.06408661  0.68725307  0.70450675    -0.60030
O797        O  0.03695986  0.63847806  0.72499490    -0.52010
C798        C  0.05886546  0.65134372  0.70945551     0.73450
O799        O  0.06229621  0.81485605  0.70200315    -0.71430
O800        O  0.03487214  0.86293624  0.72298717    -0.50110
C801        C  0.05652127  0.85061088  0.70700012     0.74830
O802        O  0.06579722  0.68814420  0.79795859    -0.66760
O803        O  0.03819511  0.63871925  0.77833066    -0.53960
C804        C  0.06086754  0.65201543  0.79304937     0.73210
Zr805      Zr  0.04517190  0.75205975  0.78821867     2.77540
O806        O  0.10520619  0.75369953  0.78727660    -0.97510
O807        O  0.04235360  0.75102999  0.83364791    -0.78330
Zr808      Zr  0.04428465  0.75114090  0.71504169     2.70070
O809        O  0.10421404  0.75347154  0.71443112    -0.79580
O810        O  0.03864607  0.74817153  0.66977640    -0.98660
Zr811      Zr  0.99747530  0.67250465  0.75246917     2.21500
Zr812      Zr  0.49618475  0.82946304  0.75171962     2.11130
O813        O  0.04468704  0.78999505  0.75152235    -2.47350
O814        O  0.04535012  0.71333503  0.75172905    -0.79370
O815        O  0.49744760  0.79136843  0.78924619    -0.71560
O816        O  0.99711371  0.71048526  0.71497792    -2.32520
O817        O  0.99789664  0.71159459  0.78973781    -2.28730
O818        O  0.49651810  0.79016294  0.71459047    -0.73320
H819        H  0.42863643  0.80302546  0.75246564     0.78670
H820        H  0.99717329  0.69392513  0.70036110     0.79760
H821        H  0.06423053  0.80610243  0.75121149     0.81990
H822        H  0.99823712  0.69541778  0.80440789     0.79590
H823        H  0.47072819  0.72881849  0.66665546     0.42630
H824        H  0.02925959  0.77354142  0.66510130     0.41600
H825        H  0.11089369  0.73912258  0.72954508     0.41280
H826        H  0.11092722  0.77239882  0.77396581     0.39210
H827        H  0.03250662  0.77623525  0.83835551     0.42340
H828        H  0.47683477  0.73557369  0.83768196     0.37130
H829        H  0.38381661  0.74490297  0.77274519     0.43240
H830        H  0.38156772  0.76632012  0.72481428     0.39660
H831        H  0.11183644  0.76691611  0.80296605     0.44580
H832        H  0.43860625  0.73226084  0.84037066     0.43300
H833        H  0.38382291  0.75249686  0.69688444     0.43440
H834        H  0.06154661  0.74905598  0.66340168     0.43790
C835        C  0.37314641  0.61791375  0.84301442     0.03350
C836        C  0.35348737  0.59226547  0.82920773    -0.12800
C837        C  0.36037325  0.58392964  0.80411797     0.00850
C838        C  0.38948971  0.59908398  0.79316198    -0.11330
C839        C  0.41009852  0.62462448  0.80692614     0.03340
C840        C  0.40155524  0.63356012  0.83194037    -0.10750
H841        H  0.33073535  0.58169593  0.83747108     0.08930
H842        H  0.39411507  0.59447324  0.77345119     0.06460
H843        H  0.41518197  0.65586454  0.84195291     0.06310
O844        O  0.30356791  0.58030296  0.69863777    -0.75080
O845        O  0.34071900  0.54516438  0.72094360    -0.53980
C846        C  0.33312541  0.57181790  0.70537526     0.78650
O847        O  0.19048909  0.57347788  0.79487477    -0.59680
O848        O  0.15120199  0.54367207  0.77101040    -0.52710
C849        C  0.16023086  0.56676379  0.78862330     0.70670
O850        O  0.30397201  0.57280361  0.79483298    -0.74240
O851        O  0.34257652  0.53998787  0.77227861    -0.54800
C852        C  0.33414054  0.56436913  0.78927474     0.76670
O853        O  0.19194164  0.58198970  0.69681798    -0.59380
O854        O  0.15343654  0.54777851  0.71883879    -0.52500
C855        C  0.16192868  0.57427768  0.70325535     0.73260
Zr856      Zr  0.24725040  0.55875424  0.70792597     2.54710
O857        O  0.24831238  0.62923116  0.70574648    -0.79950
O858        O  0.24791722  0.55201476  0.66260531    -0.93360
Zr859      Zr  0.24696349  0.55672368  0.78258099     2.64680
O860        O  0.24836077  0.62734069  0.78328739    -0.98320
O861        O  0.24642561  0.55549437  0.82805985    -0.80380
O862        O  0.27868675  0.55814348  0.74543648    -0.83740
O863        O  0.21564857  0.55930627  0.74525872    -2.18450
O864        O  0.18844141  0.92468933  0.69404652    -0.67130
O865        O  0.15125619  0.95769210  0.71804643    -0.51690
C866        C  0.15869750  0.93253360  0.70121200     0.71640
O867        O  0.30010531  0.92165222  0.79227387    -0.60030
O868        O  0.34006451  0.95498788  0.77130963    -0.52010
C869        C  0.33055940  0.92953299  0.78728539     0.73450
O870        O  0.18757748  0.92921941  0.79396777    -0.71430
O871        O  0.14927845  0.96133755  0.77106015    -0.50110
C872        C  0.15755836  0.93795696  0.78848396     0.74830
O873        O  0.30226729  0.92318860  0.69533769    -0.66760
O874        O  0.34004566  0.95576099  0.71931465    -0.53960
C875        C  0.33207627  0.93072149  0.70258770     0.73210
Zr876      Zr  0.24547687  0.94393917  0.70583802     2.77540
O877        O  0.24512209  0.87347448  0.70257554    -0.97510
O878        O  0.24679900  0.95158692  0.66066046    -0.78330
Zr879      Zr  0.24445401  0.94173059  0.78046422     2.70070
O880        O  0.24046484  0.87140313  0.77735464    -0.79580
O881        O  0.24634730  0.93817655  0.82586781    -0.98660
Zr882      Zr  0.30913568  0.99932298  0.74524528     2.21500
Zr883      Zr  0.18293890  0.00154983  0.74409818     2.11130
O884        O  0.21335000  0.94248413  0.74308508    -2.47350
O885        O  0.27660546  0.94156764  0.74344602    -0.79370
O886        O  0.21384914  0.50190628  0.70613253    -0.71560
O887        O  0.27756905  0.99851854  0.78275398    -2.32520
O888        O  0.27887681  0.00093557  0.70691533    -2.28730
O889        O  0.21372865  0.99987560  0.78196052    -0.73320
H890        H  0.20201193  0.58213589  0.74570846     0.78670
H891        H  0.29155506  0.99764587  0.79731169     0.79760
H892        H  0.19877900  0.92022153  0.74293568     0.81990
H893        H  0.29363139  0.50126939  0.69273628     0.79590
H894        H  0.26181078  0.53451295  0.83255139     0.42630
H895        H  0.23036346  0.95783305  0.83169215     0.41600
H896        H  0.25288797  0.86482554  0.76198804     0.41280
H897        H  0.22695104  0.86496500  0.71366770     0.39210
H898        H  0.22733966  0.96765239  0.65686274     0.42340
H899        H  0.27134718  0.54801204  0.65820101     0.37130
H900        H  0.24870352  0.63784238  0.72342106     0.43240
H901        H  0.22852002  0.63522284  0.77392754     0.39660
H902        H  0.23706797  0.86792986  0.68546715     0.44580
H903        H  0.24289344  0.57829842  0.65637443     0.43300
H904        H  0.24347368  0.63436601  0.80086478     0.43440
H905        H  0.23591365  0.91294723  0.82995768     0.43790
C906        C  0.11910411  0.88632042  0.84281880     0.03350
C907        C  0.13865768  0.91160673  0.82879831    -0.12800
C908        C  0.13136051  0.91959084  0.80379222     0.00850
C909        C  0.10204370  0.90455412  0.79317815    -0.11330
C910        C  0.08155693  0.87942151  0.80715035     0.03340
C911        C  0.09040631  0.87079910  0.83206448    -0.10750
H912        H  0.16160961  0.92211118  0.83678344     0.08930
H913        H  0.09730643  0.90862097  0.77345601     0.06460
H914        H  0.07684501  0.84867814  0.84216722     0.06310
C915        C  0.36953726  0.87633203  0.84123838     0.03350
C916        C  0.40108855  0.86860067  0.83168581    -0.12800
C917        C  0.40907938  0.87625882  0.80648619     0.00850
C918        C  0.38678449  0.89792121  0.79198166    -0.11330
C919        C  0.35586480  0.90868262  0.80201149     0.03340
C920        C  0.34752149  0.89695514  0.82630601    -0.10750
H921        H  0.41874636  0.85367727  0.84310830     0.08930
H922        H  0.39213689  0.90330043  0.77247160     0.06460
H923        H  0.32317481  0.90321678  0.83355876     0.06310
C924        C  0.12049951  0.62085786  0.84168304     0.03350
C925        C  0.09120838  0.63363245  0.83092672    -0.12800
C926        C  0.08399098  0.62552772  0.80573032     0.00850
C927        C  0.10535565  0.60122507  0.79198871    -0.11330
C928        C  0.13446463  0.58711320  0.80315402     0.03340
C929        C  0.14133937  0.59671002  0.82807390    -0.10750
H930        H  0.07570257  0.65338536  0.84141584     0.08930
H931        H  0.10108772  0.59651371  0.77224301     0.06460
H932        H  0.16428766  0.58762507  0.83648966     0.06310
C933        C  0.10770945  0.62082662  0.65389566     0.03350
C934        C  0.07961075  0.62803812  0.66905209    -0.12800
C935        C  0.08022772  0.62474827  0.69509535     0.00850
C936        C  0.10712193  0.60680168  0.70630563    -0.11330
C937        C  0.13479535  0.59668330  0.69185517     0.03340
C938        C  0.13602913  0.60734278  0.66648233    -0.10750
H939        H  0.05682504  0.63832015  0.66121557     0.08930
H940        H  0.10754779  0.60314263  0.72638193     0.06460
H941        H  0.15933530  0.60492456  0.65739738     0.06310
C942        C  0.09735436  0.89898868  0.65196111     0.03350
C943        C  0.12653362  0.91291860  0.66332146    -0.12800
C944        C  0.13055822  0.91185169  0.68931527     0.00850
C945        C  0.10585154  0.89430868  0.70407461    -0.11330
C946        C  0.07746683  0.87815745  0.69295248     0.03340
C947        C  0.07313714  0.88135028  0.66698743    -0.10750
H948        H  0.14500498  0.92750307  0.65205233     0.08930
H949        H  0.10930066  0.89197569  0.72408307     0.06460
H950        H  0.05052748  0.87072232  0.65870622     0.06310
C951        C  0.38766853  0.61641575  0.65602192     0.03350
C952        C  0.35999227  0.60055133  0.66806875    -0.12800
C953        C  0.36056820  0.59329910  0.69380291     0.00850
C954        C  0.38797066  0.60529814  0.70803049    -0.11330
C955        C  0.41503807  0.62296069  0.69628927     0.03340
C956        C  0.41547278  0.62600165  0.67023920    -0.10750
H957        H  0.33887080  0.59138354  0.65710971     0.08930
H958        H  0.38733493  0.60301242  0.72819250     0.06460
H959        H  0.43754074  0.63679965  0.66117176     0.06310
C960        C  0.39287158  0.89621064  0.65387028     0.03350
C961        C  0.41464875  0.87494250  0.66885987    -0.12800
C962        C  0.41091728  0.87345367  0.69484016     0.00850
C963        C  0.38313714  0.89073880  0.70580285    -0.11330
C964        C  0.35972600  0.90988113  0.69083330     0.03340
C965        C  0.36519278  0.91331687  0.66502594    -0.10750
H966        H  0.43591482  0.86131573  0.66031258     0.08930
H967        H  0.37927299  0.88849446  0.72577872     0.06460
H968        H  0.34947583  0.93205238  0.65420741     0.06310
O969        O  0.31032801  0.82774384  0.95168507    -0.75080
O970        O  0.28138532  0.79152423  0.92331812    -0.53980
C971        C  0.30335827  0.81697846  0.92921252     0.78650
O972        O  0.31215250  0.67850109  0.03492858    -0.59680
O973        O  0.27994066  0.71120119  0.06292749    -0.52710
C974        C  0.30331358  0.68783666  0.05727549     0.70670
O975        O  0.31175106  0.67697849  0.94979937    -0.74240
O976        O  0.28106820  0.71171806  0.92285312    -0.54800
C977        C  0.30362973  0.68712264  0.92743964     0.76670
O978        O  0.30826400  0.82814356  0.03680147    -0.59380
O979        O  0.27589726  0.79421189  0.06352816    -0.52500
C980        C  0.29878104  0.81890968  0.05900286     0.73260
Zr981      Zr  0.29180235  0.81089497  0.99384123     2.54710
O982        O  0.35166941  0.81447343  0.99460618    -0.79950
O983        O  0.28693533  0.88118319  0.99502795    -0.93360
Zr984      Zr  0.29385429  0.69401283  0.99257092     2.64680
O985        O  0.35376766  0.69445347  0.99073585    -0.98320
O986        O  0.29172238  0.62343286  0.99345505    -0.80380
O987        O  0.29360593  0.75273648  0.96975900    -0.83740
O988        O  0.29343154  0.75228095  0.01662858    -2.18450
O989        O  0.17809127  0.82840873  0.03608169    -0.67130
O990        O  0.20736576  0.79185574  0.06331187    -0.51690
C991        C  0.18626915  0.81829683  0.05844210     0.71640
O992        O  0.17600861  0.67547818  0.95154596    -0.60030
O993        O  0.20742739  0.70850979  0.92345063    -0.52010
C994        C  0.18428117  0.68442967  0.92912338     0.73450
O995        O  0.17769379  0.67309154  0.03600623    -0.71430
O996        O  0.20776551  0.70975809  0.06315153    -0.50110
C997        C  0.18588778  0.68386516  0.05825957     0.74830
O998        O  0.17734066  0.82612799  0.94988730    -0.66760
O999        O  0.20786244  0.79067525  0.92276620    -0.53960
C1000       C  0.18591621  0.81606645  0.92746613     0.73210
Zr1001     Zr  0.19286678  0.80823767  0.99301689     2.77540
O1002       O  0.13305925  0.80289686  0.99221099    -0.97510
O1003       O  0.19097046  0.87875518  0.99267828    -0.78330
Zr1004     Zr  0.19494519  0.69137342  0.99351182     2.70070
O1005       O  0.13510708  0.68702448  0.99423311    -0.79580
O1006       O  0.20007745  0.62109002  0.99234521    -0.98660
Zr1007     Zr  0.24383278  0.75087820  0.94683580     2.21500
Zr1008     Zr  0.24302335  0.75098293  0.03913715     2.11130
O1009       O  0.19278610  0.75005536  0.01670570    -2.47350
O1010       O  0.19370930  0.74945290  0.96967972    -0.79370
O1011       O  0.24205503  0.81034102  0.01708369    -0.71560
O1012       O  0.24421599  0.69158045  0.96920189    -2.32520
O1013       O  0.24273471  0.81032759  0.96959607    -2.28730
O1014       O  0.24455308  0.69144923  0.01685444    -0.73320
H1015       H  0.31218957  0.75299617  0.02768337     0.78670
H1016       H  0.24434943  0.66958610  0.95793976     0.79760
H1017       H  0.17402687  0.74971413  0.02782571     0.81990
H1018       H  0.24272126  0.83226453  0.95845357     0.79590
H1019       H  0.27651171  0.61606838  0.97976934     0.42630
H1020       H  0.21436446  0.61494065  0.00673663     0.41600
H1021       H  0.12770588  0.71217417  0.98748894     0.41280
H1022       H  0.12750019  0.78454431  0.00575354     0.39210
H1023       H  0.21136051  0.88702514  0.00137751     0.42340
H1024       H  0.27411343  0.88773630  0.97994267     0.37130
H1025       H  0.35886254  0.78976989  0.98688710     0.43240
H1026       H  0.36051360  0.71620124  0.00178636     0.39660
H1027       H  0.12522232  0.82835737  0.99834510     0.44580
H1028       H  0.30947867  0.89087937  0.99154878     0.43300
H1029       H  0.36051566  0.67079134  0.99972448     0.43440
H1030       H  0.17801464  0.61130307  0.99722108     0.43790
C1031       C  0.13247683  0.87777851  0.15157398     0.03350
C1032       C  0.14323871  0.91150271  0.16391067    -0.12800
C1033       C  0.13566162  0.91799028  0.18932762     0.00850
C1034       C  0.11447445  0.89219782  0.20161355    -0.11330
C1035       C  0.10237844  0.85933030  0.18897399     0.03340
C1036       C  0.11126382  0.85222731  0.16405283    -0.10750
H1037       H  0.16036822  0.93075226  0.15447564     0.08930
H1038       H  0.10885561  0.89643156  0.22124690     0.06460
H1039       H  0.10240243  0.82627847  0.15461957     0.06310
C1040       C  0.35561713  0.63697410  0.15132473     0.03350
C1041       C  0.37205489  0.66781719  0.16376746    -0.12800
C1042       C  0.38034274  0.66521002  0.18911940     0.00850
C1043       C  0.36948245  0.63323379  0.20302975    -0.11330
C1044       C  0.35293082  0.60261066  0.19109926     0.03340
C1045       C  0.34956523  0.60303818  0.16504513    -0.10750
H1046       H  0.37865172  0.69412138  0.15395222     0.08930
H1047       H  0.37349140  0.63245685  0.22300315     0.06460
H1048       H  0.33969576  0.57755888  0.15621904     0.06310
C1049       C  0.35688572  0.87806755  0.15041815     0.03350
C1050       C  0.34181578  0.90885024  0.16297213    -0.12800
C1051       C  0.34909296  0.91652691  0.18822720     0.00850
C1052       C  0.37198776  0.89345083  0.20067268    -0.11330
C1053       C  0.38738229  0.86307860  0.18783695     0.03340
C1054       C  0.38099119  0.85660931  0.16253388    -0.10750
H1055       H  0.32219257  0.92445304  0.15378727     0.08930
H1056       H  0.37649398  0.89770768  0.22046285     0.06460
H1057       H  0.39283960  0.83277650  0.15281531     0.06310
O1058       O  0.18867270  0.93564853  0.19881652    -0.75080
O1059       O  0.14823216  0.96675199  0.22063370    -0.53980
C1060       C  0.15849998  0.94235427  0.20392465     0.78650
O1061       O  0.29565932  0.92774801  0.29507674    -0.59680
O1062       O  0.33626899  0.96020889  0.27391599    -0.52710
C1063       C  0.32567656  0.93397635  0.28912772     0.70670
O1064       O  0.18909937  0.92719820  0.29342193    -0.74240
O1065       O  0.14908900  0.96414010  0.27551389    -0.54800
C1066       C  0.15909195  0.93555154  0.28896898     0.76670
O1067       O  0.29600782  0.93481944  0.19751269    -0.59380
O1068       O  0.33741242  0.96456954  0.21931299    -0.52500
C1069       C  0.32640161  0.94077755  0.20257694     0.73260
Zr1070     Zr  0.24268229  0.95528183  0.21104805     2.54710
O1071       O  0.24156613  0.88475383  0.20887573    -0.79950
O1072       O  0.24392071  0.96482383  0.16596060    -0.93360
Zr1073     Zr  0.24277606  0.95310324  0.28474486     2.64680
O1074       O  0.23979342  0.88285037  0.28929927    -0.98320
O1075       O  0.24234870  0.96341467  0.32979781    -0.80380
O1076       O  0.21075091  0.95364390  0.24796042    -0.83740
O1077       O  0.27465497  0.95203100  0.24761150    -2.18450
O1078       O  0.29921673  0.58591038  0.20055459    -0.67130
O1079       O  0.33974177  0.55294914  0.22085207    -0.51690
C1080       C  0.32953394  0.57847465  0.20518879     0.71640
O1081       O  0.19434769  0.59587109  0.29332854    -0.60030
O1082       O  0.15264973  0.56222716  0.27409688    -0.52010
C1083       C  0.16407126  0.59021378  0.28779937     0.73450
O1084       O  0.30125826  0.58810818  0.29486232    -0.71430
O1085       O  0.34058252  0.55404689  0.27362725    -0.50110
C1086       C  0.33115380  0.58113234  0.28863892     0.74830
O1087       O  0.18898854  0.58819967  0.20216699    -0.66760
O1088       O  0.14798165  0.55507583  0.22234433    -0.53960
C1089       C  0.15850974  0.58069272  0.20676380     0.73210
Zr1090     Zr  0.24403201  0.56698903  0.21267478     2.77540
O1091       O  0.24418730  0.63750970  0.21006245    -0.97510
O1092       O  0.24226099  0.55475667  0.16794344    -0.78330
Zr1093     Zr  0.24611518  0.56451213  0.28654514     2.70070
O1094       O  0.24982083  0.63284282  0.29796383    -0.79580
O1095       O  0.24407437  0.54924017  0.33086653    -0.98660
Zr1096     Zr  0.17843381  0.51094672  0.24909457     2.21500
Zr1097     Zr  0.30902661  0.50853654  0.24796940     2.11130
O1098       O  0.27682165  0.56637905  0.24905819    -2.47350
O1099       O  0.21329502  0.56699251  0.25003497    -0.79370
O1100       O  0.27672797  0.51072934  0.21094079    -0.71560
O1101       O  0.21039059  0.50977964  0.28676378    -2.32520
O1102       O  0.21007573  0.51149284  0.21151797    -2.28730
O1103       O  0.27836668  0.50785553  0.28622302    -0.73320
H1104       H  0.28751505  0.92859308  0.24691029     0.78670
H1105       H  0.19641736  0.50990173  0.30139694     0.79760
H1106       H  0.29058470  0.58931867  0.24884242     0.81990
H1107       H  0.19611463  0.51202613  0.19693624     0.79590
H1108       H  0.21932989  0.95818667  0.33498082     0.42630
H1109       H  0.26713171  0.55214998  0.33661370     0.41600
H1110       H  0.25234879  0.64646909  0.28183202     0.41280
H1111       H  0.26176782  0.64607819  0.22168060     0.39210
H1112       H  0.26221289  0.53928694  0.16451407     0.42340
H1113       H  0.22062450  0.96474257  0.16055729     0.37130
H1114       H  0.23262250  0.87663294  0.22526833     0.43240
H1115       H  0.25649632  0.87242285  0.27760351     0.39660
H1116       H  0.25295067  0.64342874  0.19323898     0.44580
H1117       H  0.25322110  0.94063241  0.15894434     0.43300
H1118       H  0.24858958  0.87754299  0.30617276     0.43440
H1119       H  0.23239798  0.57141260  0.33858201     0.43790
O1120       O  0.04799464  0.84370923  0.19640459    -0.75080
O1121       O  0.08731098  0.80588512  0.21445048    -0.53980
C1122       C  0.07786332  0.83451085  0.20085679     0.78650
O1123       O  0.44159472  0.83661057  0.29364402    -0.59680
O1124       O  0.40008890  0.80947983  0.27058694    -0.52710
C1125       C  0.41125903  0.83227480  0.28794978     0.70670
O1126       O  0.04837234  0.83445532  0.29122425    -0.74240
O1127       O  0.08829544  0.80321669  0.26897959    -0.54800
C1128       C  0.07843142  0.82750705  0.28584524     0.76670
O1129       O  0.44095528  0.84468961  0.19468831    -0.59380
O1130       O  0.40005202  0.81188282  0.21534270    -0.52500
C1131       C  0.41081803  0.83826376  0.20032402     0.73260
Zr1132     Zr  0.99378305  0.81883943  0.20506455     2.54710
O1133       O  0.99459170  0.88904403  0.20059876    -0.79950
O1134       O  0.49457352  0.80864189  0.15999659    -0.93360
Zr1135     Zr  0.99411260  0.81620918  0.27872747     2.64680
O1136       O  0.99639193  0.88685112  0.27905459    -0.98320
O1137       O  0.49467219  0.81141595  0.32411527    -0.80380
O1138       O  0.02597305  0.81801811  0.24182882    -0.83740
O1139       O  0.46195878  0.81998932  0.24220665    -2.18450
O1140       O  0.43470785  0.68520452  0.19317557    -0.67130
O1141       O  0.39574356  0.71835104  0.21550325    -0.51690
C1142       C  0.40486460  0.69194933  0.19980359     0.71640
O1143       O  0.04405767  0.68015915  0.28721735    -0.60030
O1144       O  0.08521700  0.71325407  0.26713242    -0.52010
C1145       C  0.07438495  0.68729634  0.28237481     0.73450
O1146       O  0.43562208  0.68701382  0.28933146    -0.71430
O1147       O  0.39565978  0.72023861  0.26862419    -0.50110
C1148       C  0.40549466  0.69486992  0.28452232     0.74830
O1149       O  0.04420114  0.67935242  0.19376614    -0.66760
O1150       O  0.08505152  0.71182325  0.21480199    -0.53960
C1151       C  0.07446046  0.68508447  0.19984442     0.73210
Zr1152     Zr  0.49040699  0.70681116  0.20262902     2.77540
O1153       O  0.98951533  0.63703202  0.19508839    -0.97510
O1154       O  0.49125693  0.71997756  0.15799330    -0.78330
Zr1155     Zr  0.49062575  0.70398354  0.27643203     2.70070
O1156       O  0.48696567  0.63352898  0.27501450    -0.79580
O1157       O  0.99291493  0.70667779  0.32188279    -0.98660
Zr1158     Zr  0.05721201  0.75991083  0.24073143     2.21500
Zr1159     Zr  0.42712253  0.76394724  0.24157616     2.11130
O1160       O  0.45861534  0.70552419  0.23984410    -2.47350
O1161       O  0.02241564  0.70391175  0.23945848    -0.79370
O1162       O  0.45839017  0.76402759  0.20351940    -0.71560
O1163       O  0.02540554  0.75899372  0.27825340    -2.32520
O1164       O  0.02567661  0.76181508  0.20299445    -2.28730
O1165       O  0.45926801  0.76120282  0.27872834    -0.73320
H1166       H  0.44918873  0.84349181  0.24293213     0.78670
H1167       H  0.03934308  0.75782999  0.29282704     0.79760
H1168       H  0.44452337  0.68285375  0.23991834     0.81990
H1169       H  0.03981054  0.76188981  0.18845192     0.79590
H1170       H  0.01291852  0.79353282  0.32796567     0.42630
H1171       H  0.47384670  0.72272858  0.32687468     0.41600
H1172       H  0.99152847  0.62677358  0.25734756     0.41280
H1173       H  0.47295316  0.62658301  0.20691533     0.39210
H1174       H  0.46800400  0.72518657  0.15368930     0.42340
H1175       H  0.01792631  0.81207181  0.15507659     0.37130
H1176       H  0.99384441  0.89904399  0.21796526     0.43240
H1177       H  0.47638487  0.89511740  0.27004616     0.39660
H1178       H  0.47943114  0.63371151  0.17837523     0.44580
H1179       H  0.98334452  0.83160610  0.15309758     0.43300
H1180       H  0.99227578  0.89423540  0.29668685     0.43440
H1181       H  0.48698385  0.68011805  0.32730533     0.43790
C1182       C  0.12873773  0.63609735  0.15213034     0.03350
C1183       C  0.14084547  0.60526258  0.16613451    -0.12800
C1184       C  0.13510590  0.60326236  0.19190743     0.00850
C1185       C  0.11324671  0.62949422  0.20312234    -0.11330
C1186       C  0.09839892  0.65845249  0.18863648     0.03340
C1187       C  0.10640418  0.66186073  0.16321268    -0.10750
H1188       H  0.15756725  0.58486602  0.15743162     0.08930
H1189       H  0.10865195  0.62825166  0.22301259     0.06460
H1190       H  0.09653523  0.68561727  0.15243425     0.06310
C1191       C  0.11459606  0.64036075  0.33744932     0.03350
C1192       C  0.13992686  0.61983791  0.32539469    -0.12800
C1193       C  0.14118490  0.61744752  0.29930022     0.00850
C1194       C  0.12110768  0.64119471  0.28487024    -0.11330
C1195       C  0.09773630  0.66453766  0.29669807     0.03340
C1196       C  0.09318477  0.66202849  0.32261028    -0.10750
H1197       H  0.15742297  0.60327092  0.33614143     0.08930
H1198       H  0.12309811  0.64076171  0.26471628     0.06460
H1199       H  0.07217852  0.67620174  0.33098862     0.06310
C1200       C  0.37718397  0.63596259  0.33793852     0.03350
C1201       C  0.36311747  0.60457536  0.32477211    -0.12800
C1202       C  0.35531670  0.60783266  0.29945120     0.00850
C1203       C  0.36529760  0.64074246  0.28611319    -0.11330
C1204       C  0.38192011  0.67093166  0.29842402     0.03340
C1205       C  0.38544352  0.66964373  0.32446277    -0.10750
H1206       H  0.35747151  0.57766826  0.33414079     0.08930
H1207       H  0.36115997  0.64219497  0.26617134     0.06460
H1208       H  0.39746895  0.69388737  0.33370909     0.06310
C1209       C  0.10702959  0.88945189  0.33874845     0.03350
C1210       C  0.12778090  0.91545413  0.32621192    -0.12800
C1211       C  0.13525988  0.90980795  0.30091365     0.00850
C1212       C  0.12266801  0.87741141  0.28803511    -0.11330
C1213       C  0.10172056  0.85128279  0.30035196     0.03340
C1214       C  0.09471536  0.85703644  0.32591079    -0.10750
H1215       H  0.13681894  0.94115540  0.33584171     0.08930
H1216       H  0.12752293  0.87395164  0.26822640     0.06460
H1217       H  0.07644193  0.83884956  0.33502044     0.06310
C1218       C  0.38004377  0.89737426  0.33952628     0.03350
C1219       C  0.35447104  0.91607492  0.32727361    -0.12800
C1220       C  0.34918652  0.90960231  0.30186044     0.00850
C1221       C  0.36561571  0.87974743  0.28931368    -0.11330
C1222       C  0.38896638  0.85770470  0.30207162     0.03340
C1223       C  0.39651880  0.86717242  0.32717533    -0.10750
H1224       H  0.34031483  0.93796116  0.33704432     0.08930
H1225       H  0.36129169  0.87489940  0.26955498     0.06460
H1226       H  0.41673801  0.85291474  0.33650578     0.06310
O1227       O  0.06241413  0.94781817  0.53422087    -0.75080
O1228       O  0.03525332  0.98642482  0.56202754    -0.53980
C1229       C  0.05578652  0.95949551  0.55664161     0.78650
O1230       O  0.06312981  0.60275529  0.45106655    -0.59680
O1231       O  0.03236604  0.56715793  0.42347133    -0.52710
C1232       C  0.05538141  0.59162792  0.42891225     0.70670
O1233       O  0.06674257  0.60339091  0.53454882    -0.74240
O1234       O  0.03447680  0.57251531  0.56322126    -0.54800
C1235       C  0.05802402  0.59579848  0.55711848     0.76670
O1236       O  0.05431148  0.94633151  0.44840230    -0.59380
O1237       O  0.02346858  0.98295921  0.42259356    -0.52500
C1238       C  0.04399426  0.95582323  0.42637859     0.73260
Zr1239     Zr  0.04482020  0.96835199  0.49209301     2.54710
O1240       O  0.10451894  0.97258434  0.48873654    -0.79950
O1241       O  0.04501734  0.89772531  0.49181962    -0.93360
Zr1242     Zr  0.04611329  0.58547602  0.49313070     2.64680
O1243       O  0.10608864  0.58543234  0.49275902    -0.98320
O1244       O  0.04394769  0.65603340  0.49266281    -0.80380
O1245       O  0.04727146  0.52687926  0.51618186    -0.83740
O1246       O  0.04523025  0.52703811  0.46911963    -2.18450
O1247       O  0.42807626  0.95021908  0.45342111    -0.67130
O1248       O  0.45668153  0.98682513  0.42544385    -0.51690
C1249       C  0.43523889  0.96072367  0.43093900     0.71640
O1250       O  0.42725702  0.59928450  0.53728122    -0.60030
O1251       O  0.45886298  0.56510213  0.56459185    -0.52010
C1252       C  0.43487678  0.58775343  0.55929404     0.73450
O1253       O  0.42769631  0.60314306  0.45347914    -0.71430
O1254       O  0.45810099  0.56992479  0.42466091    -0.50110
C1255       C  0.43559766  0.59404447  0.43091521     0.74830
O1256       O  0.43533190  0.94668788  0.53904871    -0.66760
O1257       O  0.46550492  0.98531657  0.56485257    -0.53960
C1258       C  0.44552997  0.95711690  0.56101250     0.73210
Zr1259     Zr  0.44601842  0.96929872  0.49575484     2.77540
O1260       O  0.38639699  0.97374970  0.49945939    -0.97510
O1261       O  0.44463280  0.89875932  0.49425295    -0.78330
Zr1262     Zr  0.44736641  0.58629319  0.49518727     2.70070
O1263       O  0.38759223  0.59100323  0.49486459    -0.79580
O1264       O  0.45334421  0.65654227  0.49703691    -0.98660
Zr1265     Zr  0.49833268  0.52861307  0.54030606     2.21500
Zr1266     Zr  0.49404766  0.52820542  0.44781296     2.11130
O1267       O  0.44496239  0.52759540  0.47201124    -2.47350
O1268       O  0.44731370  0.52821035  0.51891948    -0.79370
O1269       O  0.49406088  0.96887549  0.47023651    -0.71560
O1270       O  0.49759432  0.58770597  0.51799333    -2.32520
O1271       O  0.49684272  0.96906675  0.51750282    -2.28730
O1272       O  0.49585403  0.58752616  0.47026171    -0.73320
H1273       H  0.06351859  0.52640559  0.45757949     0.78670
H1274       H  0.49798025  0.60976532  0.52920298     0.79760
H1275       H  0.42565155  0.52757171  0.46150776     0.81990
H1276       H  0.49746593  0.94697011  0.52848076     0.79590
H1277       H  0.03061423  0.66309997  0.50748652     0.42630
H1278       H  0.46770303  0.66299965  0.48265691     0.41600
H1279       H  0.37981306  0.56485680  0.49979809     0.41280
H1280       H  0.37946127  0.98835457  0.48451554     0.39210
H1281       H  0.46705908  0.89141180  0.48878903     0.42340
H1282       H  0.03125685  0.89017597  0.50631123     0.37130
H1283       H  0.11086591  0.49312234  0.50084109     0.43240
H1284       H  0.11210598  0.56594065  0.47992141     0.39660
H1285       H  0.37837447  0.94696079  0.49638907     0.44580
H1286       H  0.06772586  0.89070736  0.49664984     0.43300
H1287       H  0.11247113  0.61066748  0.48538407     0.43440
H1288       H  0.43140268  0.66642840  0.49229850     0.43790
C1289       C  0.39553577  0.88959765  0.38429796    -0.05560
C1290       C  0.39273712  0.91376610  0.36336349     0.00360
C1291       C  0.40339445  0.95300376  0.36507506    -0.08210
C1292       C  0.41415205  0.96717882  0.38819862    -0.05590
C1293       C  0.41783658  0.94313175  0.40912001     0.00350
C1294       C  0.40859970  0.90341018  0.40716570    -0.08120
C1295       C  0.41362999  0.87540700  0.42855963     0.62260
H1296       H  0.38784228  0.85958494  0.38241433     0.12950
H1297       H  0.42094535  0.99754096  0.38980447     0.12970
C1298       C  0.40555825  0.97977852  0.34250540     0.62490
F1299       F  0.40584095  0.83762611  0.42179788    -0.22670
F1300       F  0.39370695  0.88566902  0.44846633    -0.20000
F1301       F  0.44626135  0.87626319  0.43595396    -0.19680
F1302       F  0.37482069  0.99415520  0.33680691    -0.19730
F1303       F  0.41811880  0.96012194  0.32202628    -0.20050
F1304       F  0.42620662  0.01115963  0.34704781    -0.22730
C1305       C  0.08283879  0.90833632  0.40663938    -0.05560
C1306       C  0.05754765  0.93582878  0.40353239     0.00360
C1307       C  0.04717849  0.94477179  0.37853489    -0.08210
C1308       C  0.06437953  0.92842863  0.35839953    -0.05590
C1309       C  0.09025611  0.90271572  0.36175862     0.00350
C1310       C  0.09902728  0.89112528  0.38604194    -0.08120
C1311       C  0.12536821  0.86089024  0.38994473     0.62260
H1312       H  0.09027621  0.90066733  0.42535947     0.12950
H1313       H  0.05796389  0.93585941  0.33938668     0.12970
C1314       C  0.01811855  0.97080291  0.37213937     0.62490
F1315       F  0.13045190  0.85351769  0.41503309    -0.22670
F1316       F  0.15476707  0.87356949  0.37966486    -0.20000
F1317       F  0.11594672  0.82654649  0.37844595    -0.19680
F1318       F  0.02476024  0.50885059  0.37883086    -0.19730
F1319       F  0.99018927  0.95763697  0.38423509    -0.20050
F1320       F  0.01111688  0.97066931  0.34681268    -0.22730
C1321       C  0.41831871  0.64766730  0.37167995    -0.05560
C1322       C  0.38754689  0.63173024  0.36463754     0.00360
C1323       C  0.36984420  0.60908902  0.38248775    -0.08210
C1324       C  0.38609231  0.59775816  0.40442119    -0.05590
C1325       C  0.41753964  0.61187214  0.41029439     0.00350
C1326       C  0.43281071  0.63946371  0.39476169    -0.08120
C1327       C  0.46435364  0.65994152  0.40266679     0.62260
H1328       H  0.43222319  0.66502351  0.35858446     0.12950
H1329       H  0.37415760  0.57757844  0.41706762     0.12970
C1330       C  0.33408622  0.59649141  0.37972161     0.62490
F1331       F  0.47322899  0.68899206  0.38616359    -0.22670
F1332       F  0.48985348  0.63372499  0.40388635    -0.20000
F1333       F  0.45984976  0.67673900  0.42595756    -0.19680
F1334       F  0.33259413  0.55731386  0.37402663    -0.19730
F1335       F  0.31766595  0.61722539  0.36161964    -0.20050
F1336       F  0.31759193  0.60259470  0.40202954    -0.22730
C1337       C  0.11118878  0.59471993  0.37297307    -0.05560
C1338       C  0.10648708  0.63271819  0.36425045     0.00360
C1339       C  0.08988501  0.65962502  0.38012276    -0.08210
C1340       C  0.07279696  0.64534506  0.40108649    -0.05590
C1341       C  0.07545475  0.60647571  0.40818306     0.00350
C1342       C  0.09769916  0.58207951  0.39550063    -0.08120
C1343       C  0.10741923  0.54298459  0.40580965     0.62260
H1344       H  0.12400898  0.57372075  0.36159413     0.12950
H1345       H  0.05772934  0.66477313  0.41219385     0.12970
C1346       C  0.09042970  0.70326134  0.37652574     0.62490
F1347       F  0.13195454  0.52561116  0.39174754    -0.22670
F1348       F  0.08055056  0.51865227  0.40591386    -0.20000
F1349       F  0.11895833  0.54753622  0.42993897    -0.19680
F1350       F  0.05948820  0.71572734  0.36955234    -0.19730
F1351       F  0.11331532  0.71487376  0.35887802    -0.20050
F1352       F  0.09881906  0.72119148  0.39884439    -0.22730
C1353       C  0.19172989  0.83994750  0.10231152    -0.05560
C1354       C  0.17174262  0.83807462  0.08084452     0.00360
C1355       C  0.13873514  0.85142390  0.08254800    -0.08210
C1356       C  0.12708183  0.86557127  0.10578968    -0.05590
C1357       C  0.14705009  0.86620763  0.12718055     0.00350
C1358       C  0.17984055  0.85274729  0.12553146    -0.08120
C1359       C  0.20193192  0.85021182  0.14838959     0.62260
H1360       H  0.21699114  0.83028577  0.10093486     0.12950
H1361       H  0.10194422  0.87548244  0.10765649     0.12970
C1362       C  0.11543193  0.84931277  0.06047255     0.62490
F1363       F  0.23135257  0.83183679  0.14310107    -0.22670
F1364       F  0.18622725  0.82951831  0.16705232    -0.20000
F1365       F  0.20935086  0.88693834  0.15706961    -0.19680
F1366       F  0.11343014  0.81152821  0.05176117    -0.19730
F1367       F  0.12671308  0.87329420  0.04164970    -0.20050
F1368       F  0.08394687  0.86102234  0.06682951    -0.22730
C1369       C  0.31011027  0.81601233  0.10423637    -0.05560
C1370       C  0.31511833  0.83597911  0.08157201     0.00360
C1371       C  0.33393077  0.87099638  0.08188412    -0.08210
C1372       C  0.34766443  0.88373312  0.10474726    -0.05590
C1373       C  0.34258508  0.86318307  0.12695696     0.00350
C1374       C  0.32264903  0.82945732  0.12697159    -0.08120
C1375       C  0.31375664  0.80813073  0.15098488     0.62260
H1376       H  0.29607778  0.78922645  0.10424415     0.12950
H1377       H  0.36244811  0.90997590  0.10556367     0.12970
C1378       C  0.33901059  0.89544097  0.05868097     0.62490
F1379       F  0.29010316  0.77964870  0.14701825    -0.22670
F1380       F  0.30125963  0.83395852  0.16840381    -0.20000
F1381       F  0.34126203  0.79038246  0.16070849    -0.19680
F1382       F  0.30882576  0.90451460  0.04838346    -0.19730
F1383       F  0.35776875  0.87530787  0.04142969    -0.20050
F1384       F  0.35523907  0.92995395  0.06399494    -0.22730
C1385       C  0.19037976  0.66257214  0.10164809    -0.05560
C1386       C  0.17016674  0.66601020  0.08053738     0.00360
C1387       C  0.13594090  0.65797295  0.08278523    -0.08210
C1388       C  0.12337324  0.64682523  0.10633154    -0.05590
C1389       C  0.14367838  0.64492791  0.12750302     0.00350
C1390       C  0.17770200  0.65395648  0.12527060    -0.08120
C1391       C  0.20064952  0.65676387  0.14770608     0.62260
H1392       H  0.21652272  0.66834115  0.09969232     0.12950
H1393       H  0.09738901  0.64045328  0.10860185     0.12970
C1394       C  0.11258623  0.66282257  0.06096013     0.62490
F1395       F  0.22983306  0.67571080  0.14189160    -0.22670
F1396       F  0.20849141  0.62012669  0.15578327    -0.20000
F1397       F  0.18591812  0.67721774  0.16696480    -0.19680
F1398       F  0.12040811  0.63664750  0.04224569    -0.19730
F1399       F  0.11502628  0.70020419  0.05184043    -0.20050
F1400       F  0.08012578  0.65632718  0.06782662    -0.22730
C1401       C  0.30148025  0.64347464  0.09242330    -0.05560
C1402       C  0.32001762  0.66956826  0.07842783     0.00360
C1403       C  0.35162416  0.68087325  0.08658025    -0.08210
C1404       C  0.36371885  0.66526668  0.10895302    -0.05590
C1405       C  0.34395914  0.64198577  0.12473582     0.00350
C1406       C  0.31222043  0.62972273  0.11564714    -0.08120
C1407       C  0.28848239  0.60335862  0.12967105     0.62260
H1408       H  0.27752077  0.63516882  0.08519794     0.12950
H1409       H  0.38830428  0.67313689  0.11495532     0.12970
C1410       C  0.37136652  0.71131992  0.07260659     0.62490
F1411       F  0.25738336  0.60277277  0.11909600    -0.22670
F1412       F  0.28478531  0.61610091  0.15397797    -0.20000
F1413       F  0.29974997  0.56563714  0.12884007    -0.19680
F1414       F  0.35355382  0.74533322  0.07148621    -0.19730
F1415       F  0.37786505  0.69838934  0.04864511    -0.20050
F1416       F  0.40108972  0.71951597  0.08418730    -0.22730
C1417       C  0.40282643  0.91717140  0.58369235    -0.05560
C1418       C  0.43347105  0.93670238  0.58398525     0.00360
C1419       C  0.45079942  0.93961051  0.60716227    -0.08210
C1420       C  0.43530132  0.92758742  0.62900507    -0.05590
C1421       C  0.40474531  0.90894872  0.62892542     0.00350
C1422       C  0.38840778  0.90233555  0.60585845    -0.08120
C1423       C  0.35662601  0.87906859  0.60451900     0.62260
H1424       H  0.38987384  0.91436899  0.56611332     0.12950
H1425       H  0.44744357  0.93244825  0.64677762     0.12970
C1426       C  0.48634972  0.95302082  0.60936630     0.62490
F1427       F  0.34697594  0.87242968  0.58006020    -0.22670
F1428       F  0.33158887  0.89872751  0.61649469    -0.20000
F1429       F  0.36095119  0.84350481  0.61583124    -0.19680
F1430       F  0.48866387  0.49295057  0.60748538    -0.19730
F1431       F  0.50425513  0.93513946  0.59082010    -0.20050
F1432       F  0.50034970  0.94269131  0.63193917    -0.22730
C1433       C  0.41541053  0.63686165  0.58972692    -0.05560
C1434       C  0.41354373  0.59895463  0.58018491     0.00360
C1435       C  0.39497382  0.57063718  0.59310382    -0.08210
C1436       C  0.38468041  0.57870144  0.61737561    -0.05590
C1437       C  0.39042177  0.61486433  0.62847319     0.00350
C1438       C  0.40271036  0.64579123  0.61360953    -0.08120
C1439       C  0.40050565  0.68779837  0.62211389     0.62260
H1440       H  0.42807031  0.65887258  0.57891230     0.12950
H1441       H  0.37377659  0.55546237  0.62826371     0.12970
C1442       C  0.38660087  0.53076413  0.58304304     0.62490
F1443       F  0.40918285  0.71305578  0.60314459    -0.22670
F1444       F  0.42103071  0.69510406  0.64206403    -0.20000
F1445       F  0.36844455  0.69574612  0.62912431    -0.19680
F1446       F  0.40155597  0.50378284  0.59803093    -0.19730
F1447       F  0.39631890  0.52510344  0.55855896    -0.20050
F1448       F  0.35288218  0.52505877  0.58424433    -0.22730
C1449       C  0.09223943  0.95045762  0.62112658    -0.05560
C1450       C  0.08985801  0.91077435  0.62577120     0.00360
C1451       C  0.07992581  0.88547880  0.60599138    -0.08210
C1452       C  0.07132886  0.90169481  0.58256468    -0.05590
C1453       C  0.07252632  0.94199503  0.57858197     0.00350
C1454       C  0.08442455  0.96627740  0.59798473    -0.08120
C1455       C  0.08760295  0.50952452  0.59507504     0.62260
H1456       H  0.09919046  0.96970177  0.63634478     0.12950
H1457       H  0.06159303  0.88323090  0.56785342     0.12970
C1458       C  0.07672169  0.84203665  0.60950518     0.62490
F1459       F  0.11026334  0.52422433  0.61173359    -0.22670
F1460       F  0.05767634  0.52679592  0.59999242    -0.20000
F1461       F  0.09823236  0.51838114  0.57121222    -0.19680
F1462       F  0.04653599  0.83344825  0.62016913    -0.19730
F1463       F  0.10160066  0.82837087  0.62463477    -0.20050
F1464       F  0.07874492  0.82269646  0.58681964    -0.22730
C1465       C  0.10860687  0.60075651  0.58290719    -0.05560
C1466       C  0.07679719  0.61384759  0.57787283     0.00360
C1467       C  0.06253390  0.64111605  0.59413057    -0.08210
C1468       C  0.07825698  0.64899365  0.61698510    -0.05590
C1469       C  0.10493368  0.62634197  0.62558724     0.00350
C1470       C  0.12338419  0.60612565  0.60664979    -0.08120
C1471       C  0.15844960  0.59136015  0.60992270     0.62260
H1472       H  0.12079949  0.58385410  0.56858822     0.12950
H1473       H  0.06792316  0.67099509  0.62905170     0.12970
C1474       C  0.03067595  0.66126337  0.58737875     0.62490
F1475       F  0.17154557  0.57779405  0.58764013    -0.22670
F1476       F  0.15962411  0.56091551  0.62656573    -0.20000
F1477       F  0.17855693  0.62146560  0.61793649    -0.19680
F1478       F  0.50514272  0.63456213  0.58640264    -0.19730
F1479       F  0.03402354  0.67863690  0.56427530    -0.20050
F1480       F  0.02244448  0.68963460  0.60465281    -0.22730
C1481       C  0.13688836  0.61497246  0.88600361    -0.05560
C1482       C  0.13316823  0.63856587  0.86496998     0.00360
C1483       C  0.14590084  0.67690616  0.86522076    -0.08210
C1484       C  0.16109021  0.69071663  0.88699123    -0.05590
C1485       C  0.16542916  0.66720947  0.90802858     0.00350
C1486       C  0.15306439  0.62849938  0.90767334    -0.08120
C1487       C  0.15790148  0.60099956  0.92942078     0.62260
H1488       H  0.12765739  0.58545269  0.88500149     0.12950
H1489       H  0.16998105  0.72032947  0.88767355     0.12970
C1490       C  0.14450453  0.70289632  0.84237975     0.62490
F1491       F  0.14783624  0.56357335  0.92360312    -0.22670
F1492       F  0.13963646  0.61336605  0.94974692    -0.20000
F1493       F  0.19088292  0.59973997  0.93579051    -0.19680
F1494       F  0.11221581  0.71236370  0.83744947    -0.19730
F1495       F  0.15788507  0.68408951  0.82188089    -0.20050
F1496       F  0.16193612  0.73714696  0.84585422    -0.22730
C1497       C  0.34055684  0.88661191  0.88172281    -0.05560
C1498       C  0.35743651  0.86079029  0.86577314     0.00360
C1499       C  0.35718430  0.82047200  0.87168434    -0.08210
C1500       C  0.34006642  0.80797694  0.89309735    -0.05590
C1501       C  0.32270090  0.83373271  0.90842133     0.00350
C1502       C  0.32256461  0.87366553  0.90265491    -0.08120
C1503       C  0.30204609  0.90203160  0.91773379     0.62260
H1504       H  0.34051591  0.91712309  0.87702180     0.12950
H1505       H  0.33974366  0.77752219  0.89800893     0.12970
C1506       C  0.37398040  0.79005818  0.85557282     0.62490
F1507       F  0.30222605  0.93867980  0.90730383    -0.22670
F1508       F  0.31444701  0.90503595  0.94167226    -0.20000
F1509       F  0.26970755  0.88918288  0.91878592    -0.19680
F1510       F  0.40760796  0.79280650  0.85880225    -0.19730
F1511       F  0.36606360  0.79515238  0.83072528    -0.20050
F1512       F  0.36452645  0.75274469  0.86201639    -0.22730
C1513       C  0.16274419  0.84641277  0.86081372    -0.05560
C1514       C  0.13427627  0.86808170  0.86510003     0.00360
C1515       C  0.12313357  0.87381683  0.88983485    -0.08210
C1516       C  0.14045419  0.85616068  0.90957565    -0.05590
C1517       C  0.16928611  0.83431214  0.90542052     0.00350
C1518       C  0.18123955  0.83046165  0.88029982    -0.08120
C1519       C  0.21389448  0.81139400  0.87337844     0.62260
H1520       H  0.17080408  0.84283222  0.84163869     0.12950
H1521       H  0.13154424  0.85964360  0.92851430     0.12970
C1522       C  0.09381360  0.89949005  0.89529054     0.62490
F1523       F  0.22184147  0.81630862  0.84841393    -0.22670
F1524       F  0.21239491  0.77192813  0.87761844    -0.20000
F1525       F  0.23914158  0.82789451  0.88718603    -0.19680
F1526       F  0.06585533  0.88388654  0.88439229    -0.19730
F1527       F  0.09954099  0.93609489  0.88569059    -0.20050
F1528       F  0.08806810  0.90325986  0.92068646    -0.22730
C1529       C  0.35019820  0.64787846  0.90976955    -0.05560
C1530       C  0.32152708  0.66989334  0.90540143     0.00360
C1531       C  0.31094767  0.67488020  0.88008230    -0.08210
C1532       C  0.32996415  0.65887547  0.86075624    -0.05590
C1533       C  0.35795301  0.63665696  0.86526157     0.00350
C1534       C  0.36835423  0.63070473  0.89007843    -0.08120
C1535       C  0.39790836  0.60556203  0.89560674     0.62260
H1536       H  0.35830476  0.64386239  0.92881762     0.12950
H1537       H  0.32270771  0.66283485  0.84147942     0.12970
C1538       C  0.27944414  0.69579592  0.87269097     0.62490
F1539       F  0.40328156  0.60202276  0.92102101    -0.22670
F1540       F  0.42584052  0.62166292  0.88498368    -0.20000
F1541       F  0.39287985  0.56882218  0.88575130    -0.19680
F1542       F  0.28211107  0.73488141  0.87836592    -0.19730
F1543       F  0.25274254  0.67958359  0.88498279    -0.20050
F1544       F  0.27305149  0.69286734  0.84733966    -0.22730
O1545       O  0.92902639  0.18726046  0.79930799    -0.75080
O1546       O  0.95614097  0.13855076  0.77897935    -0.53980
C1547       C  0.93364338  0.15132610  0.79412486     0.78650
O1548       O  0.92767250  0.31131706  0.70407570    -0.59680
O1549       O  0.95491036  0.36072564  0.72414337    -0.52710
C1550       C  0.93260615  0.34724975  0.70896595     0.70670
O1551       O  0.93105313  0.18537714  0.70505489    -0.74240
O1552       O  0.95829017  0.13734066  0.72561088    -0.54800
C1553       C  0.93643970  0.14975185  0.71014800     0.76670
O1554       O  0.93036794  0.31454623  0.80041847    -0.59380
O1555       O  0.95496966  0.36330879  0.77823861    -0.52500
C1556       C  0.93369385  0.35037091  0.79434009     0.73260
Zr1557     Zr  0.95025709  0.25078740  0.78927346     2.54710
O1558       O  0.89036162  0.25025815  0.79024056    -0.79950
O1559       O  0.95628447  0.24994769  0.83452250    -0.93360
Zr1560     Zr  0.94949171  0.24947379  0.71585610     2.64680
O1561       O  0.88962461  0.24485065  0.71412020    -0.98320
O1562       O  0.95706301  0.25165157  0.67075413    -0.80380
O1563       O  0.94950298  0.21211758  0.75270701    -0.83740
O1564       O  0.94864152  0.28805920  0.75241286    -2.18450
O1565       O  0.56302615  0.31658134  0.79979138    -0.67130
O1566       O  0.53664050  0.36450593  0.77849695    -0.51690
C1567       C  0.55835463  0.35231452  0.79433900     0.71640
O1568       O  0.56408661  0.18725308  0.70450674    -0.60030
O1569       O  0.53695987  0.13847806  0.72499489    -0.52010
C1570       C  0.55886546  0.15134373  0.70945550     0.73450
O1571       O  0.56229620  0.31485606  0.70200314    -0.71430
O1572       O  0.53487214  0.36293625  0.72298716    -0.50110
C1573       C  0.55652126  0.35061089  0.70700011     0.74830
O1574       O  0.56579722  0.18814420  0.79795859    -0.66760
O1575       O  0.53819512  0.13871925  0.77833065    -0.53960
C1576       C  0.56086755  0.15201543  0.79304936     0.73210
Zr1577     Zr  0.54517191  0.25205975  0.78821867     2.77540
O1578       O  0.60520620  0.25369953  0.78727659    -0.97510
O1579       O  0.54235362  0.25102998  0.83364791    -0.78330
Zr1580     Zr  0.54428465  0.25114090  0.71504168     2.70070
O1581       O  0.60421404  0.25347155  0.71443111    -0.79580
O1582       O  0.53864607  0.24817154  0.66977639    -0.98660
Zr1583     Zr  0.49747531  0.17250465  0.75246917     2.21500
Zr1584     Zr  0.99618475  0.32946304  0.75171963     2.11130
O1585       O  0.54468705  0.28999506  0.75152234    -2.47350
O1586       O  0.54535012  0.21333503  0.75172904    -0.79370
O1587       O  0.99744761  0.29136843  0.78924619    -0.71560
O1588       O  0.49711371  0.21048526  0.71497792    -2.32520
O1589       O  0.49789665  0.21159459  0.78973781    -2.28730
O1590       O  0.99651811  0.29016294  0.71459047    -0.73320
H1591       H  0.92863643  0.30302546  0.75246565     0.78670
H1592       H  0.49717329  0.19392513  0.70036110     0.79760
H1593       H  0.56423053  0.30610244  0.75121148     0.81990
H1594       H  0.49823713  0.19541778  0.80440789     0.79590
H1595       H  0.97072819  0.22881850  0.66665546     0.42630
H1596       H  0.52925958  0.27354142  0.66510130     0.41600
H1597       H  0.61089369  0.23912258  0.72954507     0.41280
H1598       H  0.61092723  0.27239882  0.77396580     0.39210
H1599       H  0.53250664  0.27623525  0.83835550     0.42340
H1600       H  0.97683480  0.23557370  0.83768196     0.37130
H1601       H  0.88381661  0.24490298  0.77274520     0.43240
H1602       H  0.88156772  0.26632011  0.72481428     0.39660
H1603       H  0.61183645  0.26691610  0.80296605     0.44580
H1604       H  0.93860627  0.23226082  0.84037066     0.43300
H1605       H  0.88382291  0.25249686  0.69688445     0.43440
H1606       H  0.56154662  0.24905599  0.66340167     0.43790
C1607       C  0.87314642  0.11791374  0.84301441     0.03350
C1608       C  0.85348737  0.09226546  0.82920772    -0.12800
C1609       C  0.86037325  0.08392964  0.80411796     0.00850
C1610       C  0.88948971  0.09908397  0.79316197    -0.11330
C1611       C  0.91009852  0.12462447  0.80692614     0.03340
C1612       C  0.90155525  0.13356010  0.83194036    -0.10750
H1613       H  0.83073535  0.08169592  0.83747108     0.08930
H1614       H  0.89411507  0.09447323  0.77345119     0.06460
H1615       H  0.91518198  0.15586452  0.84195291     0.06310
O1616       O  0.80356791  0.08030296  0.69863776    -0.75080
O1617       O  0.84071900  0.04516438  0.72094359    -0.53980
C1618       C  0.83312541  0.07181790  0.70537525     0.78650
O1619       O  0.69048909  0.07347787  0.79487476    -0.59680
O1620       O  0.65120199  0.04367207  0.77101040    -0.52710
C1621       C  0.66023086  0.06676379  0.78862330     0.70670
O1622       O  0.80397201  0.07280361  0.79483298    -0.74240
O1623       O  0.84257652  0.03998787  0.77227860    -0.54800
C1624       C  0.83414054  0.06436913  0.78927473     0.76670
O1625       O  0.69194164  0.08198970  0.69681796    -0.59380
O1626       O  0.65343654  0.04777851  0.71883877    -0.52500
C1627       C  0.66192869  0.07427768  0.70325534     0.73260
Zr1628     Zr  0.74725040  0.05875424  0.70792596     2.54710
O1629       O  0.74831238  0.12923116  0.70574648    -0.79950
O1630       O  0.74791723  0.05201477  0.66260530    -0.93360
Zr1631     Zr  0.74696349  0.05672368  0.78258098     2.64680
O1632       O  0.74836077  0.12734069  0.78328738    -0.98320
O1633       O  0.74642561  0.05549438  0.82805984    -0.80380
O1634       O  0.77868675  0.05814349  0.74543647    -0.83740
O1635       O  0.71564858  0.05930627  0.74525871    -2.18450
O1636       O  0.68844141  0.42468933  0.69404652    -0.67130
O1637       O  0.65125619  0.45769211  0.71804643    -0.51690
C1638       C  0.65869750  0.43253361  0.70121200     0.71640
O1639       O  0.80010531  0.42165222  0.79227388    -0.60030
O1640       O  0.84006451  0.45498788  0.77130963    -0.52010
C1641       C  0.83055940  0.42953300  0.78728539     0.73450
O1642       O  0.68757748  0.42921941  0.79396778    -0.71430
O1643       O  0.64927845  0.46133755  0.77106015    -0.50110
C1644       C  0.65755836  0.43795696  0.78848396     0.74830
O1645       O  0.80226729  0.42318860  0.69533769    -0.66760
O1646       O  0.84004566  0.45576099  0.71931465    -0.53960
C1647       C  0.83207627  0.43072149  0.70258770     0.73210
Zr1648     Zr  0.74547687  0.44393917  0.70583803     2.77540
O1649       O  0.74512209  0.37347448  0.70257554    -0.97510
O1650       O  0.74679900  0.45158691  0.66066046    -0.78330
Zr1651     Zr  0.74445401  0.44173059  0.78046422     2.70070
O1652       O  0.74046484  0.37140313  0.77735464    -0.79580
O1653       O  0.74634730  0.43817656  0.82586781    -0.98660
Zr1654     Zr  0.80913568  0.49932298  0.74524529     2.21500
Zr1655     Zr  0.68293890  0.50154983  0.74409818     2.11130
O1656       O  0.71335000  0.44248413  0.74308509    -2.47350
O1657       O  0.77660546  0.44156764  0.74344602    -0.79370
O1658       O  0.71384914  0.00190628  0.70613252    -0.71560
O1659       O  0.77756905  0.49851854  0.78275398    -2.32520
O1660       O  0.77887681  0.50093557  0.70691533    -2.28730
O1661       O  0.71372865  0.49987560  0.78196052    -0.73320
H1662       H  0.70201193  0.08213589  0.74570845     0.78670
H1663       H  0.79155506  0.49764587  0.79731169     0.79760
H1664       H  0.69877899  0.42022153  0.74293568     0.81990
H1665       H  0.79363139  0.00126939  0.69273628     0.79590
H1666       H  0.76181078  0.03451294  0.83255138     0.42630
H1667       H  0.73036347  0.45783305  0.83169215     0.41600
H1668       H  0.75288797  0.36482554  0.76198804     0.41280
H1669       H  0.72695103  0.36496501  0.71366771     0.39210
H1670       H  0.72733966  0.46765238  0.65686274     0.42340
H1671       H  0.77134718  0.04801203  0.65820100     0.37130
H1672       H  0.74870352  0.13784238  0.72342106     0.43240
H1673       H  0.72852002  0.13522285  0.77392754     0.39660
H1674       H  0.73706796  0.36792986  0.68546715     0.44580
H1675       H  0.74289346  0.07829844  0.65637442     0.43300
H1676       H  0.74347368  0.13436601  0.80086478     0.43440
H1677       H  0.73591365  0.41294724  0.82995768     0.43790
C1678       C  0.61910411  0.38632041  0.84281880     0.03350
C1679       C  0.63865768  0.41160672  0.82879831    -0.12800
C1680       C  0.63136051  0.41959083  0.80379222     0.00850
C1681       C  0.60204370  0.40455412  0.79317815    -0.11330
C1682       C  0.58155694  0.37942150  0.80715036     0.03340
C1683       C  0.59040631  0.37079909  0.83206448    -0.10750
H1684       H  0.66160962  0.42211117  0.83678344     0.08930
H1685       H  0.59730643  0.40862097  0.77345601     0.06460
H1686       H  0.57684502  0.34867813  0.84216722     0.06310
C1687       C  0.86953726  0.37633202  0.84123838     0.03350
C1688       C  0.90108854  0.36860066  0.83168581    -0.12800
C1689       C  0.90907937  0.37625881  0.80648619     0.00850
C1690       C  0.88678449  0.39792120  0.79198166    -0.11330
C1691       C  0.85586480  0.40868262  0.80201149     0.03340
C1692       C  0.84752149  0.39695514  0.82630601    -0.10750
H1693       H  0.91874635  0.35367725  0.84310830     0.08930
H1694       H  0.89213689  0.40330042  0.77247161     0.06460
H1695       H  0.82317481  0.40321679  0.83355876     0.06310
C1696       C  0.62049951  0.12085785  0.84168304     0.03350
C1697       C  0.59120839  0.13363245  0.83092672    -0.12800
C1698       C  0.58399098  0.12552772  0.80573031     0.00850
C1699       C  0.60535565  0.10122507  0.79198871    -0.11330
C1700       C  0.63446464  0.08711320  0.80315401     0.03340
C1701       C  0.64133937  0.09671001  0.82807390    -0.10750
H1702       H  0.57570257  0.15338536  0.84141584     0.08930
H1703       H  0.60108772  0.09651371  0.77224300     0.06460
H1704       H  0.66428766  0.08762506  0.83648966     0.06310
C1705       C  0.60770945  0.12082661  0.65389564     0.03350
C1706       C  0.57961075  0.12803813  0.66905208    -0.12800
C1707       C  0.58022772  0.12474828  0.69509534     0.00850
C1708       C  0.60712193  0.10680169  0.70630562    -0.11330
C1709       C  0.63479535  0.09668330  0.69185515     0.03340
C1710       C  0.63602912  0.10734276  0.66648231    -0.10750
H1711       H  0.55682504  0.13832016  0.66121556     0.08930
H1712       H  0.60754780  0.10314264  0.72638192     0.06460
H1713       H  0.65933529  0.10492452  0.65739736     0.06310
C1714       C  0.59735436  0.39898870  0.65196111     0.03350
C1715       C  0.62653362  0.41291861  0.66332146    -0.12800
C1716       C  0.63055822  0.41185170  0.68931527     0.00850
C1717       C  0.60585152  0.39430869  0.70407460    -0.11330
C1718       C  0.57746682  0.37815746  0.69295247     0.03340
C1719       C  0.57313714  0.38135029  0.66698742    -0.10750
H1720       H  0.64500499  0.42750306  0.65205233     0.08930
H1721       H  0.60930064  0.39197571  0.72408306     0.06460
H1722       H  0.55052749  0.37072231  0.65870620     0.06310
C1723       C  0.88766853  0.11641576  0.65602191     0.03350
C1724       C  0.85999227  0.10055134  0.66806875    -0.12800
C1725       C  0.86056821  0.09329910  0.69380290     0.00850
C1726       C  0.88797066  0.10529814  0.70803049    -0.11330
C1727       C  0.91503807  0.12296069  0.69628927     0.03340
C1728       C  0.91547278  0.12600165  0.67023920    -0.10750
H1729       H  0.83887081  0.09138355  0.65710971     0.08930
H1730       H  0.88733494  0.10301242  0.72819249     0.06460
H1731       H  0.93754074  0.13679965  0.66117176     0.06310
C1732       C  0.89287159  0.39621063  0.65387028     0.03350
C1733       C  0.91464875  0.37494250  0.66885988    -0.12800
C1734       C  0.91091728  0.37345367  0.69484017     0.00850
C1735       C  0.88313714  0.39073880  0.70580285    -0.11330
C1736       C  0.85972599  0.40988113  0.69083330     0.03340
C1737       C  0.86519278  0.41331687  0.66502594    -0.10750
H1738       H  0.93591482  0.36131573  0.66031259     0.08930
H1739       H  0.87927299  0.38849446  0.72577872     0.06460
H1740       H  0.84947583  0.43205238  0.65420741     0.06310
O1741       O  0.81032801  0.32774382  0.95168507    -0.75080
O1742       O  0.78138533  0.29152422  0.92331812    -0.53980
C1743       C  0.80335828  0.31697844  0.92921252     0.78650
O1744       O  0.81215251  0.17850106  0.03492857    -0.59680
O1745       O  0.77994068  0.21120116  0.06292749    -0.52710
C1746       C  0.80331360  0.18783663  0.05727548     0.70670
O1747       O  0.81175108  0.17697848  0.94979937    -0.74240
O1748       O  0.78106822  0.21171805  0.92285312    -0.54800
C1749       C  0.80362975  0.18712263  0.92743964     0.76670
O1750       O  0.80826399  0.32814355  0.03680147    -0.59380
O1751       O  0.77589727  0.29421186  0.06352817    -0.52500
C1752       C  0.79878103  0.31890967  0.05900287     0.73260
Zr1753     Zr  0.79180236  0.31089495  0.99384124     2.54710
O1754       O  0.85166942  0.31447341  0.99460619    -0.79950
O1755       O  0.78693534  0.38118317  0.99502795    -0.93360
Zr1756     Zr  0.79385431  0.19401281  0.99257092     2.64680
O1757       O  0.85376767  0.19445346  0.99073584    -0.98320
O1758       O  0.79172240  0.12343284  0.99345504    -0.80380
O1759       O  0.79360595  0.25273646  0.96975900    -0.83740
O1760       O  0.79343155  0.25228093  0.01662858    -2.18450
O1761       O  0.67809128  0.32840870  0.03608169    -0.67130
O1762       O  0.70736577  0.29185570  0.06331187    -0.51690
C1763       C  0.68626916  0.31829680  0.05844210     0.71640
O1764       O  0.67600862  0.17547816  0.95154595    -0.60030
O1765       O  0.70742740  0.20850977  0.92345062    -0.52010
C1766       C  0.68428118  0.18442966  0.92912338     0.73450
O1767       O  0.67769380  0.17309151  0.03600622    -0.71430
O1768       O  0.70776552  0.20975804  0.06315152    -0.50110
C1769       C  0.68588779  0.18386512  0.05825956     0.74830
O1770       O  0.67734067  0.32612796  0.94988730    -0.66760
O1771       O  0.70786245  0.29067523  0.92276619    -0.53960
C1772       C  0.68591622  0.31606643  0.92746613     0.73210
Zr1773     Zr  0.69286679  0.30823764  0.99301689     2.77540
O1774       O  0.63305926  0.30289681  0.99221099    -0.97510
O1775       O  0.69097046  0.37875515  0.99267828    -0.78330
Zr1776     Zr  0.69494521  0.19137340  0.99351181     2.70070
O1777       O  0.63510710  0.18702445  0.99423310    -0.79580
O1778       O  0.70007747  0.12108999  0.99234520    -0.98660
Zr1779     Zr  0.74383279  0.25087818  0.94683580     2.21500
Zr1780     Zr  0.74302336  0.25098290  0.03913715     2.11130
O1781       O  0.69278612  0.25005532  0.01670570    -2.47350
O1782       O  0.69370931  0.24945287  0.96967972    -0.79370
O1783       O  0.74205504  0.31034099  0.01708369    -0.71560
O1784       O  0.74421600  0.19158042  0.96920188    -2.32520
O1785       O  0.74273472  0.31032757  0.96959607    -2.28730
O1786       O  0.74455309  0.19144920  0.01685444    -0.73320
H1787       H  0.81218958  0.25299615  0.02768337     0.78670
H1788       H  0.74434945  0.16958608  0.95793975     0.79760
H1789       H  0.67402689  0.24971410  0.02782571     0.81990
H1790       H  0.74272127  0.33226451  0.95845357     0.79590
H1791       H  0.77651172  0.11606836  0.97976935     0.42630
H1792       H  0.71436447  0.11494062  0.00673662     0.41600
H1793       H  0.62770589  0.21217414  0.98748893     0.41280
H1794       H  0.62750021  0.28454427  0.00575354     0.39210
H1795       H  0.71136051  0.38702511  0.00137750     0.42340
H1796       H  0.77411344  0.38773628  0.97994266     0.37130
H1797       H  0.85886255  0.28976988  0.98688709     0.43240
H1798       H  0.86051361  0.21620125  0.00178634     0.39660
H1799       H  0.62522233  0.32835732  0.99834510     0.44580
H1800       H  0.80947867  0.39087935  0.99154879     0.43300
H1801       H  0.86051568  0.17079134  0.99972449     0.43440
H1802       H  0.67801466  0.11130304  0.99722106     0.43790
C1803       C  0.63247685  0.37777851  0.15157397     0.03350
C1804       C  0.64323872  0.41150271  0.16391066    -0.12800
C1805       C  0.63566163  0.41799028  0.18932761     0.00850
C1806       C  0.61447446  0.39219783  0.20161354    -0.11330
C1807       C  0.60237845  0.35933030  0.18897398     0.03340
C1808       C  0.61126383  0.35222731  0.16405282    -0.10750
H1809       H  0.66036823  0.43075226  0.15447563     0.08930
H1810       H  0.60885561  0.39643156  0.22124689     0.06460
H1811       H  0.60240244  0.32627847  0.15461955     0.06310
C1812       C  0.85561718  0.13697404  0.15132471     0.03350
C1813       C  0.87205492  0.16781715  0.16376743    -0.12800
C1814       C  0.88034276  0.16521000  0.18911938     0.00850
C1815       C  0.86948246  0.13323379  0.20302974    -0.11330
C1816       C  0.85293084  0.10261064  0.19109925     0.03340
C1817       C  0.84956528  0.10303813  0.16504512    -0.10750
H1818       H  0.87865176  0.19412133  0.15395219     0.08930
H1819       H  0.87349139  0.13245687  0.22300314     0.06460
H1820       H  0.83969583  0.07755881  0.15621904     0.06310
C1821       C  0.85688571  0.37806756  0.15041815     0.03350
C1822       C  0.84181578  0.40885026  0.16297214    -0.12800
C1823       C  0.84909296  0.41652693  0.18822720     0.00850
C1824       C  0.87198776  0.39345085  0.20067268    -0.11330
C1825       C  0.88738228  0.36307861  0.18783695     0.03340
C1826       C  0.88099118  0.35660932  0.16253388    -0.10750
H1827       H  0.82219257  0.42445306  0.15378727     0.08930
H1828       H  0.87649398  0.39770770  0.22046286     0.06460
H1829       H  0.89283958  0.33277651  0.15281531     0.06310
O1830       O  0.68867270  0.43564854  0.19881651    -0.75080
O1831       O  0.64823216  0.46675198  0.22063370    -0.53980
C1832       C  0.65849999  0.44235428  0.20392465     0.78650
O1833       O  0.79565932  0.42774798  0.29507674    -0.59680
O1834       O  0.83626898  0.46020889  0.27391600    -0.52710
C1835       C  0.82567656  0.43397635  0.28912773     0.70670
O1836       O  0.68909937  0.42719818  0.29342194    -0.74240
O1837       O  0.64908900  0.46414007  0.27551390    -0.54800
C1838       C  0.65909194  0.43555152  0.28896898     0.76670
O1839       O  0.79600782  0.43481946  0.19751269    -0.59380
O1840       O  0.83741242  0.46456955  0.21931300    -0.52500
C1841       C  0.82640161  0.44077757  0.20257695     0.73260
Zr1842     Zr  0.74268229  0.45528185  0.21104805     2.54710
O1843       O  0.74156613  0.38475385  0.20887572    -0.79950
O1844       O  0.74392072  0.46482386  0.16596060    -0.93360
Zr1845     Zr  0.74277605  0.45310321  0.28474486     2.64680
O1846       O  0.73979342  0.38285034  0.28929923    -0.98320
O1847       O  0.74234870  0.46341460  0.32979782    -0.80380
O1848       O  0.71075090  0.45364389  0.24796042    -0.83740
O1849       O  0.77465497  0.45203100  0.24761150    -2.18450
O1850       O  0.79921675  0.08591037  0.20055458    -0.67130
O1851       O  0.83974178  0.05294913  0.22085206    -0.51690
C1852       C  0.82953396  0.07847464  0.20518878     0.71640
O1853       O  0.69434769  0.09587110  0.29332852    -0.60030
O1854       O  0.65264974  0.06222717  0.27409686    -0.52010
C1855       C  0.66407126  0.09021379  0.28779935     0.73450
O1856       O  0.80125826  0.08810818  0.29486230    -0.71430
O1857       O  0.84058252  0.05404688  0.27362724    -0.50110
C1858       C  0.83115380  0.08113234  0.28863891     0.74830
O1859       O  0.68898855  0.08819967  0.20216697    -0.66760
O1860       O  0.64798165  0.05507584  0.22234432    -0.53960
C1861       C  0.65850975  0.08069273  0.20676379     0.73210
Zr1862     Zr  0.74403202  0.06698901  0.21267475     2.77540
O1863       O  0.74418732  0.13750967  0.21006233    -0.97510
O1864       O  0.74226102  0.05475652  0.16794342    -0.78330
Zr1865     Zr  0.74611519  0.06451215  0.28654511     2.70070
O1866       O  0.74982084  0.13284285  0.29796377    -0.79580
O1867       O  0.74407438  0.04924023  0.33086651    -0.98660
Zr1868     Zr  0.67843381  0.01094672  0.24909456     2.21500
Zr1869     Zr  0.80902661  0.00853653  0.24796939     2.11130
O1870       O  0.77682165  0.06637905  0.24905817    -2.47350
O1871       O  0.71329503  0.06699251  0.25003494    -0.79370
O1872       O  0.77672798  0.01072931  0.21094078    -0.71560
O1873       O  0.71039059  0.00977965  0.28676376    -2.32520
O1874       O  0.71007573  0.01149282  0.21151795    -2.28730
O1875       O  0.77836668  0.00785555  0.28622301    -0.73320
H1876       H  0.78751505  0.42859309  0.24691029     0.78670
H1877       H  0.69641736  0.00990176  0.30139692     0.79760
H1878       H  0.79058471  0.08931867  0.24884240     0.81990
H1879       H  0.69611463  0.01202611  0.19693622     0.79590
H1880       H  0.71932988  0.45818666  0.33498082     0.42630
H1881       H  0.76713172  0.05215000  0.33661367     0.41600
H1882       H  0.75234880  0.14646910  0.28183194     0.41280
H1883       H  0.76176779  0.14607819  0.22168051     0.39210
H1884       H  0.76221299  0.03928692  0.16451405     0.42340
H1885       H  0.72062450  0.46474261  0.16055729     0.37130
H1886       H  0.73262249  0.37663295  0.22526832     0.43240
H1887       H  0.75649633  0.37242284  0.27760346     0.39660
H1888       H  0.75295076  0.14342866  0.19323887     0.44580
H1889       H  0.75322110  0.44063245  0.15894434     0.43300
H1890       H  0.74858957  0.37754293  0.30617272     0.43440
H1891       H  0.73239801  0.07141268  0.33858198     0.43790
O1892       O  0.54799465  0.34370923  0.19640457    -0.75080
O1893       O  0.58731099  0.30588513  0.21445046    -0.53980
C1894       C  0.57786332  0.33451086  0.20085677     0.78650
O1895       O  0.94159471  0.33661055  0.29364402    -0.59680
O1896       O  0.90008889  0.30947981  0.27058693    -0.52710
C1897       C  0.91125902  0.33227478  0.28794978     0.70670
O1898       O  0.54837234  0.33445530  0.29122424    -0.74240
O1899       O  0.58829544  0.30321669  0.26897958    -0.54800
C1900       C  0.57843142  0.32750704  0.28584523     0.76670
O1901       O  0.94095527  0.34468963  0.19468831    -0.59380
O1902       O  0.90005201  0.31188282  0.21534269    -0.52500
C1903       C  0.91081802  0.33826376  0.20032402     0.73260
Zr1904     Zr  0.49378305  0.31883944  0.20506454     2.54710
O1905       O  0.49459171  0.38904405  0.20059876    -0.79950
O1906       O  0.99457350  0.30864192  0.15999658    -0.93360
Zr1907     Zr  0.49411260  0.31620918  0.27872746     2.64680
O1908       O  0.49639192  0.38685113  0.27905457    -0.98320
O1909       O  0.99467218  0.31141593  0.32411527    -0.80380
O1910       O  0.52597305  0.31801811  0.24182881    -0.83740
O1911       O  0.96195877  0.31998932  0.24220664    -2.18450
O1912       O  0.93470787  0.18520453  0.19317554    -0.67130
O1913       O  0.89574357  0.21835103  0.21550323    -0.51690
C1914       C  0.90486462  0.19194932  0.19980357     0.71640
O1915       O  0.54405767  0.18015914  0.28721733    -0.60030
O1916       O  0.58521699  0.21325407  0.26713241    -0.52010
C1917       C  0.57438495  0.18729634  0.28237479     0.73450
O1918       O  0.93562209  0.18701381  0.28933144    -0.71430
O1919       O  0.89565978  0.22023860  0.26862418    -0.50110
C1920       C  0.90549466  0.19486991  0.28452231     0.74830
O1921       O  0.54420115  0.17935244  0.19376612    -0.66760
O1922       O  0.58505153  0.21182327  0.21480198    -0.53960
C1923       C  0.57446047  0.18508448  0.19984441     0.73210
Zr1924     Zr  0.99040700  0.20681117  0.20262900     2.77540
O1925       O  0.48951533  0.13703203  0.19508836    -0.97510
O1926       O  0.99125695  0.21997758  0.15799329    -0.78330
Zr1927     Zr  0.99062575  0.20398354  0.27643201     2.70070
O1928       O  0.98696568  0.13352897  0.27501447    -0.79580
O1929       O  0.49291493  0.20667777  0.32188277    -0.98660
Zr1930     Zr  0.55721201  0.25991084  0.24073141     2.21500
Zr1931     Zr  0.92712253  0.26394724  0.24157614     2.11130
O1932       O  0.95861534  0.20552419  0.23984408    -2.47350
O1933       O  0.52241564  0.20391175  0.23945846    -0.79370
O1934       O  0.95839018  0.26402760  0.20351938    -0.71560
O1935       O  0.52540554  0.25899372  0.27825339    -2.32520
O1936       O  0.52567662  0.26181509  0.20299443    -2.28730
O1937       O  0.95926801  0.26120280  0.27872833    -0.73320
H1938       H  0.94918872  0.34349181  0.24293213     0.78670
H1939       H  0.53934307  0.25782999  0.29282702     0.79760
H1940       H  0.94452338  0.18285374  0.23991832     0.81990
H1941       H  0.53981054  0.26188983  0.18845191     0.79590
H1942       H  0.51291848  0.29353279  0.32796565     0.42630
H1943       H  0.97384671  0.22272855  0.32687466     0.41600
H1944       H  0.49152846  0.12677359  0.25734752     0.41280
H1945       H  0.97295318  0.12658302  0.20691531     0.39210
H1946       H  0.96800402  0.22518659  0.15368928     0.42340
H1947       H  0.51792631  0.31207179  0.15507657     0.37130
H1948       H  0.49384444  0.39904399  0.21796527     0.43240
H1949       H  0.97638485  0.39511739  0.27004616     0.39660
H1950       H  0.97943116  0.13371152  0.17837521     0.44580
H1951       H  0.48334456  0.33160617  0.15309757     0.43300
H1952       H  0.49227580  0.39423541  0.29668683     0.43440
H1953       H  0.98698384  0.18011802  0.32730531     0.43790
C1954       C  0.62873775  0.13609735  0.15213033     0.03350
C1955       C  0.64084547  0.10526258  0.16613450    -0.12800
C1956       C  0.63510591  0.10326237  0.19190742     0.00850
C1957       C  0.61324673  0.12949423  0.20312233    -0.11330
C1958       C  0.59839894  0.15845250  0.18863647     0.03340
C1959       C  0.60640420  0.16186074  0.16321267    -0.10750
H1960       H  0.65756724  0.08486600  0.15743161     0.08930
H1961       H  0.60865196  0.12825169  0.22301258     0.06460
H1962       H  0.59653526  0.18561728  0.15243423     0.06310
C1963       C  0.61459604  0.14036073  0.33744930     0.03350
C1964       C  0.63992684  0.11983790  0.32539467    -0.12800
C1965       C  0.64118490  0.11744751  0.29930020     0.00850
C1966       C  0.62110768  0.14119472  0.28487023    -0.11330
C1967       C  0.59773630  0.16453766  0.29669805     0.03340
C1968       C  0.59318475  0.16202847  0.32261026    -0.10750
H1969       H  0.65742295  0.10327090  0.33614141     0.08930
H1970       H  0.62309812  0.14076173  0.26471627     0.06460
H1971       H  0.57217850  0.17620171  0.33098860     0.06310
C1972       C  0.87718397  0.13596259  0.33793851     0.03350
C1973       C  0.86311747  0.10457535  0.32477210    -0.12800
C1974       C  0.85531670  0.10783266  0.29945119     0.00850
C1975       C  0.86529761  0.14074245  0.28611318    -0.11330
C1976       C  0.88192012  0.17093165  0.29842400     0.03340
C1977       C  0.88544352  0.16964373  0.32446276    -0.10750
H1978       H  0.85747151  0.07766826  0.33414078     0.08930
H1979       H  0.86115998  0.14219496  0.26617132     0.06460
H1980       H  0.89746896  0.19388737  0.33370908     0.06310
C1981       C  0.60702958  0.38945186  0.33874845     0.03350
C1982       C  0.62778089  0.41545411  0.32621193    -0.12800
C1983       C  0.63525988  0.40980793  0.30091366     0.00850
C1984       C  0.62266801  0.37741139  0.28803511    -0.11330
C1985       C  0.60172056  0.35128277  0.30035196     0.03340
C1986       C  0.59471535  0.35703642  0.32591079    -0.10750
H1987       H  0.63681894  0.44115537  0.33584172     0.08930
H1988       H  0.62752292  0.37395162  0.26822641     0.06460
H1989       H  0.57644192  0.33884954  0.33502044     0.06310
C1990       C  0.88004379  0.39737424  0.33952628     0.03350
C1991       C  0.85447106  0.41607492  0.32727360    -0.12800
C1992       C  0.84918652  0.40960230  0.30186044     0.00850
C1993       C  0.86561570  0.37974740  0.28931368    -0.11330
C1994       C  0.88896637  0.35770467  0.30207162     0.03340
C1995       C  0.89651880  0.36717239  0.32717533    -0.10750
H1996       H  0.84031487  0.43796118  0.33704432     0.08930
H1997       H  0.86129167  0.37489937  0.26955499     0.06460
H1998       H  0.91673801  0.35291470  0.33650578     0.06310
O1999       O  0.56241411  0.44781811  0.53422085    -0.75080
O2000       O  0.53525333  0.48642477  0.56202754    -0.53980
C2001       C  0.55578651  0.45949544  0.55664159     0.78650
O2002       O  0.56312980  0.10275528  0.45106654    -0.59680
O2003       O  0.53236602  0.06715791  0.42347132    -0.52710
C2004       C  0.55538140  0.09162791  0.42891224     0.70670
O2005       O  0.56674256  0.10339093  0.53454881    -0.74240
O2006       O  0.53447678  0.07251535  0.56322124    -0.54800
C2007       C  0.55802400  0.09579851  0.55711847     0.76670
O2008       O  0.55431147  0.44633149  0.44840230    -0.59380
O2009       O  0.52346858  0.48295921  0.42259355    -0.52500
C2010       C  0.54399426  0.45582322  0.42637858     0.73260
Zr2011     Zr  0.54482020  0.46835197  0.49209300     2.54710
O2012       O  0.60451894  0.47258435  0.48873654    -0.79950
O2013       O  0.54501737  0.39772529  0.49181959    -0.93360
Zr2014     Zr  0.54611327  0.08547604  0.49313069     2.64680
O2015       O  0.60608862  0.08543238  0.49275901    -0.98320
O2016       O  0.54394764  0.15603341  0.49266279    -0.80380
O2017       O  0.54727144  0.02687928  0.51618186    -0.83740
O2018       O  0.54523024  0.02703812  0.46911963    -2.18450
O2019       O  0.92807627  0.45021908  0.45342110    -0.67130
O2020       O  0.95668155  0.48682514  0.42544385    -0.51690
C2021       C  0.93523891  0.46072367  0.43093900     0.71640
O2022       O  0.92725701  0.09928452  0.53728121    -0.60030
O2023       O  0.95886297  0.06510216  0.56459184    -0.52010
C2024       C  0.93487677  0.08775346  0.55929403     0.73450
O2025       O  0.92769630  0.10314306  0.45347913    -0.71430
O2026       O  0.95810099  0.06992479  0.42466090    -0.50110
C2027       C  0.93559766  0.09404448  0.43091520     0.74830
O2028       O  0.93533191  0.44668787  0.53904871    -0.66760
O2029       O  0.96550494  0.48531655  0.56485257    -0.53960
C2030       C  0.94552998  0.45711688  0.56101250     0.73210
Zr2031     Zr  0.94601843  0.46929871  0.49575484     2.77540
O2032       O  0.88639700  0.47374970  0.49945939    -0.97510
O2033       O  0.94463281  0.39875932  0.49425294    -0.78330
Zr2034     Zr  0.94736641  0.08629322  0.49518725     2.70070
O2035       O  0.88759223  0.09100327  0.49486458    -0.79580
O2036       O  0.95334422  0.15654229  0.49703690    -0.98660
Zr2037     Zr  0.99833267  0.02861311  0.54030606     2.21500
Zr2038     Zr  0.99404766  0.02820542  0.44781296     2.11130
O2039       O  0.94496239  0.02759542  0.47201123    -2.47350
O2040       O  0.94731369  0.02821037  0.51891947    -0.79370
O2041       O  0.99406089  0.46887549  0.47023651    -0.71560
O2042       O  0.99759432  0.08770600  0.51799331    -2.32520
O2043       O  0.99684273  0.46906674  0.51750282    -2.28730
O2044       O  0.99585403  0.08752618  0.47026170    -0.73320
H2045       H  0.56351858  0.02640559  0.45757948     0.78670
H2046       H  0.99798025  0.10976536  0.52920297     0.79760
H2047       H  0.92565155  0.02757172  0.46150775     0.81990
H2048       H  0.99746594  0.44697008  0.52848075     0.79590
H2049       H  0.53061423  0.16309999  0.50748652     0.42630
H2050       H  0.96770305  0.16299966  0.48265690     0.41600
H2051       H  0.87981305  0.06485684  0.49979806     0.41280
H2052       H  0.87946129  0.48835457  0.48451553     0.39210
H2053       H  0.96705909  0.39141179  0.48878904     0.42340
H2054       H  0.53125687  0.39017593  0.50631119     0.37130
H2055       H  0.61086590  0.99312240  0.50084106     0.43240
H2056       H  0.61210597  0.06594071  0.47992140     0.39660
H2057       H  0.87837448  0.44696079  0.49638906     0.44580
H2058       H  0.56772589  0.39070735  0.49664982     0.43300
H2059       H  0.61247110  0.11066754  0.48538407     0.43440
H2060       H  0.93140269  0.16642842  0.49229848     0.43790
C2061       C  0.89553576  0.38959765  0.38429797    -0.05560
C2062       C  0.89273715  0.41376609  0.36336349     0.00360
C2063       C  0.90339451  0.45300373  0.36507504    -0.08210
C2064       C  0.91415210  0.46717880  0.38819860    -0.05590
C2065       C  0.91783661  0.44313175  0.40912000     0.00350
C2066       C  0.90859970  0.40341019  0.40716570    -0.08120
C2067       C  0.91362996  0.37540702  0.42855964     0.62260
H2068       H  0.88784226  0.35958495  0.38241434     0.12950
H2069       H  0.92094543  0.49754094  0.38980443     0.12970
C2070       C  0.90555835  0.47977846  0.34250536     0.62490
F2071       F  0.90584090  0.33762613  0.42179790    -0.22670
F2072       F  0.89370692  0.38566907  0.44846633    -0.20000
F2073       F  0.94626132  0.37626318  0.43595398    -0.19680
F2074       F  0.87482080  0.49415518  0.33680686    -0.19730
F2075       F  0.91811889  0.46012185  0.32202627    -0.20050
F2076       F  0.92620675  0.51115955  0.34704777    -0.22730
C2077       C  0.58283879  0.40833632  0.40663938    -0.05560
C2078       C  0.55754765  0.43582876  0.40353239     0.00360
C2079       C  0.54717847  0.44477174  0.37853489    -0.08210
C2080       C  0.56437951  0.42842858  0.35839953    -0.05590
C2081       C  0.59025610  0.40271569  0.36175862     0.00350
C2082       C  0.59902728  0.39112526  0.38604194    -0.08120
C2083       C  0.62536822  0.36089024  0.38994474     0.62260
H2084       H  0.59027622  0.40066734  0.42535947     0.12950
H2085       H  0.55796386  0.43585935  0.33938668     0.12970
C2086       C  0.51811851  0.47080285  0.37213937     0.62490
F2087       F  0.63045191  0.35351770  0.41503310    -0.22670
F2088       F  0.65476707  0.37356949  0.37966486    -0.20000
F2089       F  0.61594674  0.32654648  0.37844597    -0.19680
F2090       F  0.52476029  0.00885065  0.37883088    -0.19730
F2091       F  0.49018925  0.45763690  0.38423511    -0.20050
F2092       F  0.51111682  0.47066921  0.34681268    -0.22730
C2093       C  0.91831871  0.14766730  0.37167994    -0.05560
C2094       C  0.88754689  0.13173024  0.36463753     0.00360
C2095       C  0.86984420  0.10908902  0.38248774    -0.08210
C2096       C  0.88609231  0.09775816  0.40442117    -0.05590
C2097       C  0.91753964  0.11187214  0.41029438     0.00350
C2098       C  0.93281071  0.13946372  0.39476168    -0.08120
C2099       C  0.96435364  0.15994152  0.40266678     0.62260
H2100       H  0.93222320  0.16502351  0.35858444     0.12950
H2101       H  0.87415760  0.07757845  0.41706761     0.12970
C2102       C  0.83408622  0.09649142  0.37972160     0.62490
F2103       F  0.97322899  0.18899206  0.38616358    -0.22670
F2104       F  0.98985348  0.13372499  0.40388634    -0.20000
F2105       F  0.95984976  0.17673901  0.42595755    -0.19680
F2106       F  0.83259412  0.05731387  0.37402662    -0.19730
F2107       F  0.81766595  0.11722540  0.36161963    -0.20050
F2108       F  0.81759193  0.10259472  0.40202953    -0.22730
C2109       C  0.61118875  0.09471990  0.37297305    -0.05560
C2110       C  0.60648705  0.13271816  0.36425043     0.00360
C2111       C  0.58988498  0.15962500  0.38012274    -0.08210
C2112       C  0.57279694  0.14534504  0.40108647    -0.05590
C2113       C  0.57545474  0.10647569  0.40818305     0.00350
C2114       C  0.59769915  0.08207949  0.39550061    -0.08120
C2115       C  0.60741923  0.04298458  0.40580965     0.62260
H2116       H  0.62400896  0.07372073  0.36159411     0.12950
H2117       H  0.55772932  0.16477311  0.41219383     0.12970
C2118       C  0.59042967  0.20326132  0.37652572     0.62490
F2119       F  0.63195452  0.02561115  0.39174752    -0.22670
F2120       F  0.58055058  0.01865226  0.40591390    -0.20000
F2121       F  0.61895838  0.04753625  0.42993895    -0.19680
F2122       F  0.55948818  0.21572732  0.36955232    -0.19730
F2123       F  0.61331529  0.21487374  0.35887800    -0.20050
F2124       F  0.59881903  0.22119146  0.39884437    -0.22730
C2125       C  0.69172990  0.33994748  0.10231152    -0.05560
C2126       C  0.67174263  0.33807460  0.08084451     0.00360
C2127       C  0.63873515  0.35142388  0.08254800    -0.08210
C2128       C  0.62708185  0.36557126  0.10578967    -0.05590
C2129       C  0.64705011  0.36620763  0.12718054     0.00350
C2130       C  0.67984056  0.35274728  0.12553146    -0.08120
C2131       C  0.70193193  0.35021183  0.14838959     0.62260
H2132       H  0.71699115  0.33028574  0.10093486     0.12950
H2133       H  0.60194423  0.37548244  0.10765648     0.12970
C2134       C  0.61543195  0.34931276  0.06047254     0.62490
F2135       F  0.73135258  0.33183679  0.14310107    -0.22670
F2136       F  0.68622726  0.32951833  0.16705232    -0.20000
F2137       F  0.70935088  0.38693835  0.15706960    -0.19680
F2138       F  0.61343015  0.31152819  0.05176117    -0.19730
F2139       F  0.62671310  0.37329418  0.04164970    -0.20050
F2140       F  0.58394689  0.36102233  0.06682949    -0.22730
C2141       C  0.81011024  0.31601235  0.10423639    -0.05560
C2142       C  0.81511831  0.33597911  0.08157202     0.00360
C2143       C  0.83393076  0.37099637  0.08188412    -0.08210
C2144       C  0.84766441  0.38373312  0.10474726    -0.05590
C2145       C  0.84258506  0.36318309  0.12695697     0.00350
C2146       C  0.82264899  0.32945734  0.12697160    -0.08120
C2147       C  0.81375660  0.30813077  0.15098489     0.62260
H2148       H  0.79607774  0.28922647  0.10424417     0.12950
H2149       H  0.86244811  0.40997589  0.10556366     0.12970
C2150       C  0.83901059  0.39544095  0.05868097     0.62490
F2151       F  0.79010311  0.27964875  0.14701827    -0.22670
F2152       F  0.80125959  0.33395858  0.16840381    -0.20000
F2153       F  0.84126198  0.29038250  0.16070851    -0.19680
F2154       F  0.80882577  0.40451459  0.04838346    -0.19730
F2155       F  0.85776876  0.37530785  0.04142970    -0.20050
F2156       F  0.85523908  0.42995393  0.06399494    -0.22730
C2157       C  0.69037978  0.16257203  0.10164806    -0.05560
C2158       C  0.67016675  0.16601016  0.08053736     0.00360
C2159       C  0.63594090  0.15797297  0.08278522    -0.08210
C2160       C  0.62337325  0.14682526  0.10633154    -0.05590
C2161       C  0.64367840  0.14492788  0.12750301     0.00350
C2162       C  0.67770203  0.15395639  0.12527057    -0.08120
C2163       C  0.70064958  0.15676370  0.14770603     0.62260
H2164       H  0.71652275  0.16834099  0.09969228     0.12950
H2165       H  0.59738900  0.14045336  0.10860185     0.12970
C2166       C  0.61258623  0.16282263  0.06096013     0.62490
F2167       F  0.72983313  0.17571062  0.14189154    -0.22670
F2168       F  0.70849146  0.12012650  0.15578318    -0.20000
F2169       F  0.68591822  0.17721755  0.16696479    -0.19680
F2170       F  0.62040807  0.13664756  0.04224569    -0.19730
F2171       F  0.61502631  0.20020425  0.05184044    -0.20050
F2172       F  0.58012578  0.15632729  0.06782663    -0.22730
C2173       C  0.80148032  0.14347453  0.09242325    -0.05560
C2174       C  0.82001765  0.16956823  0.07842782     0.00360
C2175       C  0.85162418  0.18087325  0.08658025    -0.08210
C2176       C  0.86371889  0.16526666  0.10895300    -0.05590
C2177       C  0.84395920  0.14198568  0.12473578     0.00350
C2178       C  0.81222052  0.12972259  0.11564708    -0.08120
C2179       C  0.78848252  0.10335836  0.12967095     0.62260
H2180       H  0.77752086  0.13516867  0.08519788     0.12950
H2181       H  0.88830431  0.17313689  0.11495531     0.12970
C2182       C  0.87136649  0.21132000  0.07260662     0.62490
F2183       F  0.75738352  0.10277242  0.11909587    -0.22670
F2184       F  0.78478537  0.11610061  0.15397788    -0.20000
F2185       F  0.79975020  0.06563693  0.12883996    -0.19680
F2186       F  0.85355375  0.24533327  0.07148628    -0.19730
F2187       F  0.87786503  0.19838950  0.04864513    -0.20050
F2188       F  0.90108969  0.21951607  0.08418734    -0.22730
C2189       C  0.90282644  0.41717139  0.58369235    -0.05560
C2190       C  0.93347106  0.43670236  0.58398524     0.00360
C2191       C  0.95079943  0.43961049  0.60716227    -0.08210
C2192       C  0.93530132  0.42758740  0.62900507    -0.05590
C2193       C  0.90474531  0.40894871  0.62892542     0.00350
C2194       C  0.88840778  0.40233555  0.60585845    -0.08120
C2195       C  0.85662601  0.37906859  0.60451900     0.62260
H2196       H  0.88987384  0.41436898  0.56611332     0.12950
H2197       H  0.94744357  0.43244823  0.64677762     0.12970
C2198       C  0.98634973  0.45302079  0.60936630     0.62490
F2199       F  0.84697594  0.37242967  0.58006021    -0.22670
F2200       F  0.83158887  0.39872751  0.61649469    -0.20000
F2201       F  0.86095118  0.34350481  0.61583124    -0.19680
F2202       F  0.98866387  0.99295059  0.60748538    -0.19730
F2203       F  0.00425514  0.43513942  0.59082009    -0.20050
F2204       F  0.00034971  0.44269127  0.63193916    -0.22730
C2205       C  0.91541053  0.13686168  0.58972691    -0.05560
C2206       C  0.91354372  0.09895466  0.58018490     0.00360
C2207       C  0.89497381  0.07063721  0.59310381    -0.08210
C2208       C  0.88468041  0.07870145  0.61737560    -0.05590
C2209       C  0.89042176  0.11486435  0.62847318     0.00350
C2210       C  0.90271036  0.14579125  0.61360952    -0.08120
C2211       C  0.90050565  0.18779838  0.62211389     0.62260
H2212       H  0.92807030  0.15887260  0.57891230     0.12950
H2213       H  0.87377658  0.05546239  0.62826370     0.12970
C2214       C  0.88660086  0.03076415  0.58304303     0.62490
F2215       F  0.90918284  0.21305580  0.60314459    -0.22670
F2216       F  0.92103072  0.19510407  0.64206403    -0.20000
F2217       F  0.86844455  0.19574614  0.62912431    -0.19680
F2218       F  0.90155595  0.00378286  0.59803091    -0.19730
F2219       F  0.89631890  0.02510346  0.55855894    -0.20050
F2220       F  0.85288216  0.02505880  0.58424431    -0.22730
C2221       C  0.59223954  0.45045758  0.62112651    -0.05560
C2222       C  0.58985804  0.41077432  0.62577118     0.00360
C2223       C  0.57992576  0.38547875  0.60599138    -0.08210
C2224       C  0.57132878  0.40169474  0.58256469    -0.05590
C2225       C  0.57252633  0.44199494  0.57858194     0.00350
C2226       C  0.58442467  0.46627732  0.59798465    -0.08120
C2227       C  0.58760283  0.00952458  0.59507510     0.62260
H2228       H  0.59919062  0.46970176  0.63634469     0.12950
H2229       H  0.56159287  0.38323082  0.56785346     0.12970
C2230       C  0.57672158  0.34203661  0.60950521     0.62490
F2231       F  0.61026314  0.02422443  0.61173370    -0.22670
F2232       F  0.55767619  0.02679592  0.59999242    -0.20000
F2233       F  0.59823232  0.01838123  0.57121231    -0.19680
F2234       F  0.54653580  0.33344828  0.62016906    -0.19730
F2235       F  0.60160044  0.32837082  0.62463490    -0.20050
F2236       F  0.57874493  0.32269640  0.58681969    -0.22730
C2237       C  0.60860685  0.10075654  0.58290717    -0.05560
C2238       C  0.57679718  0.11384762  0.57787281     0.00360
C2239       C  0.56253388  0.14111607  0.59413056    -0.08210
C2240       C  0.57825697  0.14899366  0.61698509    -0.05590
C2241       C  0.60493367  0.12634198  0.62558723     0.00350
C2242       C  0.62338418  0.10612566  0.60664977    -0.08120
C2243       C  0.65844959  0.09136014  0.60992267     0.62260
H2244       H  0.62079948  0.08385414  0.56858819     0.12950
H2245       H  0.56792315  0.17099510  0.62905170     0.12970
C2246       C  0.53067593  0.16126339  0.58737875     0.62490
F2247       F  0.67154555  0.07779407  0.58764010    -0.22670
F2248       F  0.65962408  0.06091549  0.62656569    -0.20000
F2249       F  0.67855692  0.12146557  0.61793648    -0.19680
F2250       F  0.00514271  0.13456214  0.58640265    -0.19730
F2251       F  0.53402352  0.17863693  0.56427530    -0.20050
F2252       F  0.52244447  0.18963461  0.60465282    -0.22730
C2253       C  0.63688835  0.11497246  0.88600360    -0.05560
C2254       C  0.63316823  0.13856586  0.86496998     0.00360
C2255       C  0.64590086  0.17690615  0.86522075    -0.08210
C2256       C  0.66109024  0.19071661  0.88699122    -0.05590
C2257       C  0.66542917  0.16720945  0.90802858     0.00350
C2258       C  0.65306438  0.12849937  0.90767334    -0.08120
C2259       C  0.65790145  0.10099956  0.92942079     0.62260
H2260       H  0.62765736  0.08545269  0.88500149     0.12950
H2261       H  0.66998109  0.22032944  0.88767353     0.12970
C2262       C  0.64450457  0.20289629  0.84237973     0.62490
F2263       F  0.64783618  0.06357336  0.92360313    -0.22670
F2264       F  0.63963643  0.11336607  0.94974692    -0.20000
F2265       F  0.69088288  0.09973995  0.93579053    -0.19680
F2266       F  0.61221584  0.21236369  0.83744945    -0.19730
F2267       F  0.65788511  0.18408948  0.82188089    -0.20050
F2268       F  0.66193617  0.23714693  0.84585420    -0.22730
C2269       C  0.84055685  0.38661191  0.88172282    -0.05560
C2270       C  0.85743650  0.36079029  0.86577314     0.00360
C2271       C  0.85718427  0.32047199  0.87168432    -0.08210
C2272       C  0.84006640  0.30797692  0.89309734    -0.05590
C2273       C  0.82270091  0.33373270  0.90842134     0.00350
C2274       C  0.82256463  0.37366552  0.90265492    -0.08120
C2275       C  0.80204613  0.40203160  0.91773382     0.62260
H2276       H  0.84051594  0.41712308  0.87702181     0.12950
H2277       H  0.83974363  0.27752218  0.89800891     0.12970
C2278       C  0.87398034  0.29005816  0.85557278     0.62490
F2279       F  0.80222609  0.43867980  0.90730386    -0.22670
F2280       F  0.81444706  0.40503593  0.94167228    -0.20000
F2281       F  0.76970759  0.38918289  0.91878595    -0.19680
F2282       F  0.90760791  0.29280645  0.85880219    -0.19730
F2283       F  0.86606352  0.29515239  0.83072525    -0.20050
F2284       F  0.86452637  0.25274468  0.86201635    -0.22730
C2285       C  0.66274420  0.34641277  0.86081372    -0.05560
C2286       C  0.63427628  0.36808168  0.86510003     0.00360
C2287       C  0.62313358  0.37381680  0.88983485    -0.08210
C2288       C  0.64045419  0.35616065  0.90957565    -0.05590
C2289       C  0.66928612  0.33431213  0.90542052     0.00350
C2290       C  0.68123957  0.33046164  0.88029982    -0.08120
C2291       C  0.71389450  0.31139400  0.87337845     0.62260
H2292       H  0.67080410  0.34283222  0.84163869     0.12950
H2293       H  0.63154424  0.35964356  0.92851430     0.12970
C2294       C  0.59381359  0.39949000  0.89529055     0.62490
F2295       F  0.72184150  0.31630864  0.84841394    -0.22670
F2296       F  0.71239493  0.27192814  0.87761844    -0.20000
F2297       F  0.73914159  0.32789451  0.88718604    -0.19680
F2298       F  0.56585533  0.38388649  0.88439229    -0.19730
F2299       F  0.59954097  0.43609485  0.88569060    -0.20050
F2300       F  0.58806809  0.40325981  0.92068646    -0.22730
C2301       C  0.85019821  0.14787845  0.90976955    -0.05560
C2302       C  0.82152710  0.16989333  0.90540142     0.00360
C2303       C  0.81094769  0.17488018  0.88008230    -0.08210
C2304       C  0.82996417  0.15887545  0.86075623    -0.05590
C2305       C  0.85795302  0.13665695  0.86526156     0.00350
C2306       C  0.86835424  0.13070472  0.89007842    -0.08120
C2307       C  0.89790838  0.10556203  0.89560674     0.62260
H2308       H  0.85830478  0.14386239  0.92881762     0.12950
H2309       H  0.82270772  0.16283484  0.84147942     0.12970
C2310       C  0.77944415  0.19579591  0.87269097     0.62490
F2311       F  0.90328158  0.10202275  0.92102100    -0.22670
F2312       F  0.92584053  0.12166292  0.88498367    -0.20000
F2313       F  0.89287987  0.06882217  0.88575129    -0.19680
F2314       F  0.78211108  0.23488139  0.87836591    -0.19730
F2315       F  0.75274255  0.17958357  0.88498279    -0.20050
F2316       F  0.77305150  0.19286732  0.84733966    -0.22730
O2317       O  0.92902638  0.68726046  0.79930799    -0.75080
O2318       O  0.95614097  0.63855076  0.77897935    -0.53980
C2319       C  0.93364337  0.65132610  0.79412487     0.78650
O2320       O  0.92767250  0.81131706  0.70407569    -0.59680
O2321       O  0.95491036  0.86072564  0.72414337    -0.52710
C2322       C  0.93260615  0.84724975  0.70896594     0.70670
O2323       O  0.93105312  0.68537714  0.70505489    -0.74240
O2324       O  0.95829016  0.63734066  0.72561089    -0.54800
C2325       C  0.93643970  0.64975185  0.71014800     0.76670
O2326       O  0.93036794  0.81454623  0.80041847    -0.59380
O2327       O  0.95496966  0.86330879  0.77823861    -0.52500
C2328       C  0.93369385  0.85037091  0.79434009     0.73260
Zr2329     Zr  0.95025709  0.75078740  0.78927345     2.54710
O2330       O  0.89036161  0.75025816  0.79024055    -0.79950
O2331       O  0.95628445  0.74994770  0.83452250    -0.93360
Zr2332     Zr  0.94949171  0.74947379  0.71585609     2.64680
O2333       O  0.88962461  0.74485065  0.71412020    -0.98320
O2334       O  0.95706301  0.75165157  0.67075412    -0.80380
O2335       O  0.94950297  0.71211759  0.75270701    -0.83740
O2336       O  0.94864151  0.78805921  0.75241286    -2.18450
O2337       O  0.56302614  0.81658135  0.79979138    -0.67130
O2338       O  0.53664050  0.86450593  0.77849694    -0.51690
C2339       C  0.55835463  0.85231453  0.79433899     0.71640
O2340       O  0.56408660  0.68725307  0.70450675    -0.60030
O2341       O  0.53695986  0.63847806  0.72499490    -0.52010
C2342       C  0.55886545  0.65134372  0.70945551     0.73450
O2343       O  0.56229621  0.81485605  0.70200315    -0.71430
O2344       O  0.53487214  0.86293624  0.72298717    -0.50110
C2345       C  0.55652127  0.85061088  0.70700012     0.74830
O2346       O  0.56579722  0.68814420  0.79795859    -0.66760
O2347       O  0.53819511  0.63871925  0.77833066    -0.53960
C2348       C  0.56086754  0.65201543  0.79304937     0.73210
Zr2349     Zr  0.54517190  0.75205975  0.78821867     2.77540
O2350       O  0.60520620  0.75369953  0.78727660    -0.97510
O2351       O  0.54235360  0.75102999  0.83364791    -0.78330
Zr2352     Zr  0.54428465  0.75114090  0.71504169     2.70070
O2353       O  0.60421404  0.75347154  0.71443112    -0.79580
O2354       O  0.53864607  0.74817154  0.66977640    -0.98660
Zr2355     Zr  0.49747530  0.67250465  0.75246917     2.21500
Zr2356     Zr  0.99618475  0.82946304  0.75171962     2.11130
O2357       O  0.54468704  0.78999506  0.75152235    -2.47350
O2358       O  0.54535012  0.71333503  0.75172905    -0.79370
O2359       O  0.99744760  0.79136843  0.78924618    -0.71560
O2360       O  0.49711371  0.71048526  0.71497792    -2.32520
O2361       O  0.49789664  0.71159459  0.78973781    -2.28730
O2362       O  0.99651811  0.79016294  0.71459047    -0.73320
H2363       H  0.92863643  0.80302546  0.75246564     0.78670
H2364       H  0.49717329  0.69392513  0.70036110     0.79760
H2365       H  0.56423053  0.80610244  0.75121149     0.81990
H2366       H  0.49823712  0.69541778  0.80440789     0.79590
H2367       H  0.97072819  0.72881849  0.66665546     0.42630
H2368       H  0.52925959  0.77354142  0.66510131     0.41600
H2369       H  0.61089369  0.73912258  0.72954508     0.41280
H2370       H  0.61092722  0.77239882  0.77396581     0.39210
H2371       H  0.53250662  0.77623525  0.83835551     0.42340
H2372       H  0.97683477  0.73557369  0.83768196     0.37130
H2373       H  0.88381661  0.74490297  0.77274519     0.43240
H2374       H  0.88156772  0.76632012  0.72481428     0.39660
H2375       H  0.61183644  0.76691611  0.80296606     0.44580
H2376       H  0.93860625  0.73226084  0.84037066     0.43300
H2377       H  0.88382291  0.75249686  0.69688444     0.43440
H2378       H  0.56154661  0.74905598  0.66340168     0.43790
C2379       C  0.87314641  0.61791375  0.84301442     0.03350
C2380       C  0.85348737  0.59226547  0.82920773    -0.12800
C2381       C  0.86037325  0.58392964  0.80411797     0.00850
C2382       C  0.88948971  0.59908397  0.79316198    -0.11330
C2383       C  0.91009852  0.62462448  0.80692614     0.03340
C2384       C  0.90155524  0.63356011  0.83194037    -0.10750
H2385       H  0.83073535  0.58169593  0.83747108     0.08930
H2386       H  0.89411507  0.59447324  0.77345119     0.06460
H2387       H  0.91518197  0.65586454  0.84195291     0.06310
O2388       O  0.80356791  0.58030296  0.69863777    -0.75080
O2389       O  0.84071900  0.54516438  0.72094360    -0.53980
C2390       C  0.83312541  0.57181790  0.70537525     0.78650
O2391       O  0.69048909  0.57347788  0.79487477    -0.59680
O2392       O  0.65120199  0.54367207  0.77101040    -0.52710
C2393       C  0.66023086  0.56676379  0.78862330     0.70670
O2394       O  0.80397201  0.57280361  0.79483298    -0.74240
O2395       O  0.84257652  0.53998787  0.77227861    -0.54800
C2396       C  0.83414054  0.56436913  0.78927474     0.76670
O2397       O  0.69194164  0.58198971  0.69681798    -0.59380
O2398       O  0.65343654  0.54777852  0.71883879    -0.52500
C2399       C  0.66192869  0.57427769  0.70325535     0.73260
Zr2400     Zr  0.74725040  0.55875424  0.70792597     2.54710
O2401       O  0.74831239  0.62923116  0.70574647    -0.79950
O2402       O  0.74791722  0.55201476  0.66260531    -0.93360
Zr2403     Zr  0.74696349  0.55672368  0.78258099     2.64680
O2404       O  0.74836077  0.62734069  0.78328739    -0.98320
O2405       O  0.74642561  0.55549438  0.82805985    -0.80380
O2406       O  0.77868675  0.55814349  0.74543648    -0.83740
O2407       O  0.71564857  0.55930627  0.74525872    -2.18450
O2408       O  0.68844141  0.92468933  0.69404651    -0.67130
O2409       O  0.65125619  0.95769210  0.71804643    -0.51690
C2410       C  0.65869750  0.93253360  0.70121199     0.71640
O2411       O  0.80010531  0.92165222  0.79227387    -0.60030
O2412       O  0.84006451  0.95498788  0.77130962    -0.52010
C2413       C  0.83055940  0.92953299  0.78728539     0.73450
O2414       O  0.68757748  0.92921941  0.79396777    -0.71430
O2415       O  0.64927845  0.96133755  0.77106015    -0.50110
C2416       C  0.65755836  0.93795696  0.78848395     0.74830
O2417       O  0.80226729  0.92318860  0.69533769    -0.66760
O2418       O  0.84004566  0.95576099  0.71931464    -0.53960
C2419       C  0.83207627  0.93072149  0.70258770     0.73210
Zr2420     Zr  0.74547687  0.94393917  0.70583802     2.77540
O2421       O  0.74512209  0.87347448  0.70257553    -0.97510
O2422       O  0.74679900  0.95158691  0.66066046    -0.78330
Zr2423     Zr  0.74445401  0.94173059  0.78046422     2.70070
O2424       O  0.74046484  0.87140313  0.77735463    -0.79580
O2425       O  0.74634730  0.93817655  0.82586781    -0.98660
Zr2426     Zr  0.80913568  0.99932298  0.74524528     2.21500
Zr2427     Zr  0.68293890  0.00154983  0.74409817     2.11130
O2428       O  0.71335000  0.94248413  0.74308508    -2.47350
O2429       O  0.77660546  0.94156764  0.74344601    -0.79370
O2430       O  0.71384914  0.50190628  0.70613253    -0.71560
O2431       O  0.77756905  0.99851854  0.78275398    -2.32520
O2432       O  0.77887681  0.00093557  0.70691533    -2.28730
O2433       O  0.71372865  0.99987560  0.78196051    -0.73320
H2434       H  0.70201193  0.58213589  0.74570846     0.78670
H2435       H  0.79155506  0.99764587  0.79731169     0.79760
H2436       H  0.69877900  0.92022153  0.74293567     0.81990
H2437       H  0.79363139  0.50126939  0.69273628     0.79590
H2438       H  0.76181078  0.53451295  0.83255139     0.42630
H2439       H  0.73036346  0.95783304  0.83169215     0.41600
H2440       H  0.75288797  0.86482554  0.76198803     0.41280
H2441       H  0.72695104  0.86496500  0.71366770     0.39210
H2442       H  0.72733966  0.96765239  0.65686273     0.42340
H2443       H  0.77134717  0.54801205  0.65820101     0.37130
H2444       H  0.74870352  0.63784239  0.72342105     0.43240
H2445       H  0.72852002  0.63522285  0.77392754     0.39660
H2446       H  0.73706797  0.86792986  0.68546715     0.44580
H2447       H  0.74289343  0.57829841  0.65637442     0.43300
H2448       H  0.74347368  0.63436601  0.80086478     0.43440
H2449       H  0.73591365  0.91294723  0.82995767     0.43790
C2450       C  0.61910411  0.88632042  0.84281880     0.03350
C2451       C  0.63865768  0.91160673  0.82879831    -0.12800
C2452       C  0.63136051  0.91959084  0.80379221     0.00850
C2453       C  0.60204370  0.90455413  0.79317814    -0.11330
C2454       C  0.58155694  0.87942151  0.80715035     0.03340
C2455       C  0.59040631  0.87079910  0.83206448    -0.10750
H2456       H  0.66160961  0.92211118  0.83678344     0.08930
H2457       H  0.59730643  0.90862097  0.77345600     0.06460
H2458       H  0.57684501  0.84867814  0.84216722     0.06310
C2459       C  0.86953726  0.87633203  0.84123838     0.03350
C2460       C  0.90108854  0.86860067  0.83168581    -0.12800
C2461       C  0.90907937  0.87625882  0.80648619     0.00850
C2462       C  0.88678449  0.89792121  0.79198166    -0.11330
C2463       C  0.85586480  0.90868262  0.80201149     0.03340
C2464       C  0.84752149  0.89695513  0.82630600    -0.10750
H2465       H  0.91874636  0.85367727  0.84310830     0.08930
H2466       H  0.89213689  0.90330042  0.77247160     0.06460
H2467       H  0.82317481  0.90321678  0.83355875     0.06310
C2468       C  0.62049951  0.62085786  0.84168304     0.03350
C2469       C  0.59120838  0.63363245  0.83092672    -0.12800
C2470       C  0.58399098  0.62552772  0.80573031     0.00850
C2471       C  0.60535565  0.60122507  0.79198871    -0.11330
C2472       C  0.63446463  0.58711320  0.80315402     0.03340
C2473       C  0.64133937  0.59671002  0.82807390    -0.10750
H2474       H  0.57570257  0.65338536  0.84141584     0.08930
H2475       H  0.60108772  0.59651371  0.77224301     0.06460
H2476       H  0.66428766  0.58762507  0.83648966     0.06310
C2477       C  0.60770946  0.62082664  0.65389566     0.03350
C2478       C  0.57961075  0.62803813  0.66905210    -0.12800
C2479       C  0.58022771  0.62474827  0.69509536     0.00850
C2480       C  0.60712192  0.60680169  0.70630564    -0.11330
C2481       C  0.63479535  0.59668332  0.69185517     0.03340
C2482       C  0.63602913  0.60734281  0.66648234    -0.10750
H2483       H  0.55682504  0.63832016  0.66121557     0.08930
H2484       H  0.60754778  0.60314262  0.72638194     0.06460
H2485       H  0.65933532  0.60492462  0.65739739     0.06310
C2486       C  0.59735435  0.89898869  0.65196111     0.03350
C2487       C  0.62653361  0.91291860  0.66332146    -0.12800
C2488       C  0.63055822  0.91185168  0.68931527     0.00850
C2489       C  0.60585154  0.89430867  0.70407461    -0.11330
C2490       C  0.57746683  0.87815745  0.69295248     0.03340
C2491       C  0.57313713  0.88135028  0.66698743    -0.10750
H2492       H  0.64500497  0.92750307  0.65205233     0.08930
H2493       H  0.60930066  0.89197569  0.72408307     0.06460
H2494       H  0.55052748  0.87072233  0.65870622     0.06310
C2495       C  0.88766853  0.61641575  0.65602191     0.03350
C2496       C  0.85999227  0.60055133  0.66806875    -0.12800
C2497       C  0.86056820  0.59329910  0.69380291     0.00850
C2498       C  0.88797066  0.60529814  0.70803049    -0.11330
C2499       C  0.91503807  0.62296069  0.69628927     0.03340
C2500       C  0.91547277  0.62600165  0.67023920    -0.10750
H2501       H  0.83887080  0.59138354  0.65710971     0.08930
H2502       H  0.88733494  0.60301242  0.72819250     0.06460
H2503       H  0.93754073  0.63679965  0.66117176     0.06310
C2504       C  0.89287159  0.89621064  0.65387027     0.03350
C2505       C  0.91464875  0.87494250  0.66885987    -0.12800
C2506       C  0.91091728  0.87345367  0.69484016     0.00850
C2507       C  0.88313714  0.89073880  0.70580285    -0.11330
C2508       C  0.85972600  0.90988113  0.69083330     0.03340
C2509       C  0.86519278  0.91331687  0.66502593    -0.10750
H2510       H  0.93591482  0.86131573  0.66031258     0.08930
H2511       H  0.87927299  0.88849446  0.72577872     0.06460
H2512       H  0.84947583  0.93205238  0.65420741     0.06310
O2513       O  0.81032800  0.82774384  0.95168507    -0.75080
O2514       O  0.78138532  0.79152423  0.92331812    -0.53980
C2515       C  0.80335827  0.81697845  0.92921251     0.78650
O2516       O  0.81215250  0.67850109  0.03492858    -0.59680
O2517       O  0.77994066  0.71120119  0.06292748    -0.52710
C2518       C  0.80331359  0.68783666  0.05727549     0.70670
O2519       O  0.81175106  0.67697849  0.94979937    -0.74240
O2520       O  0.78106821  0.71171806  0.92285312    -0.54800
C2521       C  0.80362974  0.68712264  0.92743964     0.76670
O2522       O  0.80826399  0.82814356  0.03680146    -0.59380
O2523       O  0.77589726  0.79421188  0.06352816    -0.52500
C2524       C  0.79878104  0.81890968  0.05900286     0.73260
Zr2525     Zr  0.79180235  0.81089497  0.99384123     2.54710
O2526       O  0.85166941  0.81447343  0.99460618    -0.79950
O2527       O  0.78693533  0.88118318  0.99502795    -0.93360
Zr2528     Zr  0.79385430  0.69401283  0.99257092     2.64680
O2529       O  0.85376766  0.69445347  0.99073584    -0.98320
O2530       O  0.79172239  0.62343285  0.99345505    -0.80380
O2531       O  0.79360594  0.75273648  0.96975900    -0.83740
O2532       O  0.79343154  0.75228095  0.01662858    -2.18450
O2533       O  0.67809127  0.82840872  0.03608168    -0.67130
O2534       O  0.70736576  0.79185573  0.06331187    -0.51690
C2535       C  0.68626915  0.81829683  0.05844209     0.71640
O2536       O  0.67600861  0.67547818  0.95154596    -0.60030
O2537       O  0.70742739  0.70850978  0.92345063    -0.52010
C2538       C  0.68428117  0.68442967  0.92912338     0.73450
O2539       O  0.67769380  0.67309154  0.03600623    -0.71430
O2540       O  0.70776551  0.70975808  0.06315153    -0.50110
C2541       C  0.68588778  0.68386515  0.05825957     0.74830
O2542       O  0.67734066  0.82612798  0.94988730    -0.66760
O2543       O  0.70786244  0.79067524  0.92276619    -0.53960
C2544       C  0.68591621  0.81606644  0.92746612     0.73210
Zr2545     Zr  0.69286678  0.80823766  0.99301689     2.77540
O2546       O  0.63305925  0.80289685  0.99221098    -0.97510
O2547       O  0.69097045  0.87875517  0.99267828    -0.78330
Zr2548     Zr  0.69494520  0.69137342  0.99351182     2.70070
O2549       O  0.63510708  0.68702447  0.99423311    -0.79580
O2550       O  0.70007745  0.62109002  0.99234521    -0.98660
Zr2551     Zr  0.74383278  0.75087819  0.94683580     2.21500
Zr2552     Zr  0.74302335  0.75098293  0.03913714     2.11130
O2553       O  0.69278610  0.75005535  0.01670569    -2.47350
O2554       O  0.69370930  0.74945289  0.96967972    -0.79370
O2555       O  0.74205503  0.81034102  0.01708369    -0.71560
O2556       O  0.74421599  0.69158044  0.96920189    -2.32520
O2557       O  0.74273471  0.81032759  0.96959607    -2.28730
O2558       O  0.74455308  0.69144923  0.01685444    -0.73320
H2559       H  0.81218957  0.75299617  0.02768337     0.78670
H2560       H  0.74434944  0.66958609  0.95793976     0.79760
H2561       H  0.67402688  0.74971413  0.02782571     0.81990
H2562       H  0.74272126  0.83226453  0.95845357     0.79590
H2563       H  0.77651171  0.61606838  0.97976934     0.42630
H2564       H  0.71436446  0.61494064  0.00673662     0.41600
H2565       H  0.62770588  0.71217416  0.98748894     0.41280
H2566       H  0.62750020  0.78454430  0.00575353     0.39210
H2567       H  0.71136050  0.88702513  0.00137750     0.42340
H2568       H  0.77411343  0.88773630  0.97994267     0.37130
H2569       H  0.85886254  0.78976988  0.98688710     0.43240
H2570       H  0.86051360  0.71620124  0.00178636     0.39660
H2571       H  0.62522232  0.82835736  0.99834509     0.44580
H2572       H  0.80947867  0.89087937  0.99154878     0.43300
H2573       H  0.86051566  0.67079134  0.99972448     0.43440
H2574       H  0.67801464  0.61130306  0.99722108     0.43790
C2575       C  0.63247683  0.87777850  0.15157398     0.03350
C2576       C  0.64323870  0.91150270  0.16391066    -0.12800
C2577       C  0.63566162  0.91799026  0.18932761     0.00850
C2578       C  0.61447445  0.89219781  0.20161355    -0.11330
C2579       C  0.60237844  0.85933028  0.18897399     0.03340
C2580       C  0.61126382  0.85222730  0.16405283    -0.10750
H2581       H  0.66036821  0.93075225  0.15447564     0.08930
H2582       H  0.60885561  0.89643154  0.22124690     0.06460
H2583       H  0.60240243  0.82627845  0.15461956     0.06310
C2584       C  0.85561713  0.63697411  0.15132473     0.03350
C2585       C  0.87205489  0.66781720  0.16376746    -0.12800
C2586       C  0.88034274  0.66521002  0.18911940     0.00850
C2587       C  0.86948245  0.63323379  0.20302975    -0.11330
C2588       C  0.85293083  0.60261066  0.19109926     0.03340
C2589       C  0.84956523  0.60303818  0.16504513    -0.10750
H2590       H  0.87865172  0.69412139  0.15395222     0.08930
H2591       H  0.87349141  0.63245685  0.22300315     0.06460
H2592       H  0.83969576  0.57755888  0.15621904     0.06310
C2593       C  0.85688571  0.87806756  0.15041815     0.03350
C2594       C  0.84181578  0.90885025  0.16297213    -0.12800
C2595       C  0.84909295  0.91652692  0.18822720     0.00850
C2596       C  0.87198776  0.89345085  0.20067268    -0.11330
C2597       C  0.88738228  0.86307861  0.18783695     0.03340
C2598       C  0.88099119  0.85660932  0.16253388    -0.10750
H2599       H  0.82219257  0.92445304  0.15378727     0.08930
H2600       H  0.87649398  0.89770770  0.22046285     0.06460
H2601       H  0.89283960  0.83277651  0.15281531     0.06310
O2602       O  0.68867269  0.93564853  0.19881651    -0.75080
O2603       O  0.64823215  0.96675198  0.22063369    -0.53980
C2604       C  0.65849998  0.94235427  0.20392465     0.78650
O2605       O  0.79565931  0.92774801  0.29507674    -0.59680
O2606       O  0.83626898  0.96020889  0.27391599    -0.52710
C2607       C  0.82567655  0.93397636  0.28912773     0.70670
O2608       O  0.68909936  0.92719819  0.29342193    -0.74240
O2609       O  0.64908899  0.96414009  0.27551388    -0.54800
C2610       C  0.65909194  0.93555154  0.28896897     0.76670
O2611       O  0.79600782  0.93481945  0.19751268    -0.59380
O2612       O  0.83741242  0.96456955  0.21931299    -0.52500
C2613       C  0.82640161  0.94077756  0.20257694     0.73260
Zr2614     Zr  0.74268228  0.95528183  0.21104804     2.54710
O2615       O  0.74156613  0.88475383  0.20887572    -0.79950
O2616       O  0.74392071  0.96482383  0.16596059    -0.93360
Zr2617     Zr  0.74277604  0.95310323  0.28474486     2.64680
O2618       O  0.73979341  0.88285036  0.28929925    -0.98320
O2619       O  0.74234868  0.96341465  0.32979781    -0.80380
O2620       O  0.71075090  0.95364390  0.24796042    -0.83740
O2621       O  0.77465496  0.95203100  0.24761149    -2.18450
O2622       O  0.79921674  0.58591038  0.20055459    -0.67130
O2623       O  0.83974178  0.55294914  0.22085207    -0.51690
C2624       C  0.82953395  0.57847465  0.20518879     0.71640
O2625       O  0.69434770  0.59587108  0.29332854    -0.60030
O2626       O  0.65264974  0.56222716  0.27409688    -0.52010
C2627       C  0.66407127  0.59021378  0.28779937     0.73450
O2628       O  0.80125827  0.58810817  0.29486231    -0.71430
O2629       O  0.84058253  0.55404688  0.27362725    -0.50110
C2630       C  0.83115381  0.58113234  0.28863892     0.74830
O2631       O  0.68898855  0.58819966  0.20216699    -0.66760
O2632       O  0.64798165  0.55507583  0.22234433    -0.53960
C2633       C  0.65850975  0.58069272  0.20676380     0.73210
Zr2634     Zr  0.74403202  0.56698902  0.21267479     2.77540
O2635       O  0.74418731  0.63750969  0.21006245    -0.97510
O2636       O  0.74226100  0.55475667  0.16794344    -0.78330
Zr2637     Zr  0.74611519  0.56451213  0.28654514     2.70070
O2638       O  0.74982084  0.63284281  0.29796384    -0.79580
O2639       O  0.74407439  0.54924017  0.33086654    -0.98660
Zr2640     Zr  0.67843382  0.51094671  0.24909457     2.21500
Zr2641     Zr  0.80902662  0.50853653  0.24796940     2.11130
O2642       O  0.77682166  0.56637904  0.24905819    -2.47350
O2643       O  0.71329503  0.56699250  0.25003497    -0.79370
O2644       O  0.77672798  0.51072933  0.21094079    -0.71560
O2645       O  0.71039060  0.50977963  0.28676378    -2.32520
O2646       O  0.71007573  0.51149283  0.21151797    -2.28730
O2647       O  0.77836669  0.50785553  0.28622302    -0.73320
H2648       H  0.78751505  0.92859309  0.24691029     0.78670
H2649       H  0.69641737  0.50990173  0.30139694     0.79760
H2650       H  0.79058471  0.58931866  0.24884242     0.81990
H2651       H  0.69611463  0.51202612  0.19693624     0.79590
H2652       H  0.71932987  0.95818668  0.33498081     0.42630
H2653       H  0.76713173  0.55214998  0.33661370     0.41600
H2654       H  0.75234880  0.64646909  0.28183202     0.41280
H2655       H  0.76176782  0.64607818  0.22168060     0.39210
H2656       H  0.76221290  0.53928694  0.16451407     0.42340
H2657       H  0.72062449  0.96474258  0.16055729     0.37130
H2658       H  0.73262248  0.87663294  0.22526832     0.43240
H2659       H  0.75649632  0.87242285  0.27760348     0.39660
H2660       H  0.75295067  0.64342874  0.19323898     0.44580
H2661       H  0.75322109  0.94063242  0.15894434     0.43300
H2662       H  0.74858957  0.87754297  0.30617274     0.43440
H2663       H  0.73239799  0.57141259  0.33858201     0.43790
O2664       O  0.54799464  0.84370921  0.19640459    -0.75080
O2665       O  0.58731099  0.80588510  0.21445048    -0.53980
C2666       C  0.57786332  0.83451083  0.20085678     0.78650
O2667       O  0.94159472  0.83661058  0.29364402    -0.59680
O2668       O  0.90008889  0.80947984  0.27058694    -0.52710
C2669       C  0.91125903  0.83227481  0.28794978     0.70670
O2670       O  0.54837235  0.83445530  0.29122425    -0.74240
O2671       O  0.58829544  0.80321668  0.26897959    -0.54800
C2672       C  0.57843142  0.82750704  0.28584524     0.76670
O2673       O  0.94095527  0.84468963  0.19468831    -0.59380
O2674       O  0.90005201  0.81188284  0.21534270    -0.52500
C2675       C  0.91081803  0.83826377  0.20032402     0.73260
Zr2676     Zr  0.49378305  0.81883941  0.20506455     2.54710
O2677       O  0.49459171  0.88904402  0.20059877    -0.79950
O2678       O  0.99457352  0.80864190  0.15999659    -0.93360
Zr2679     Zr  0.49411261  0.81620917  0.27872747     2.64680
O2680       O  0.49639193  0.88685111  0.27905459    -0.98320
O2681       O  0.99467219  0.81141595  0.32411527    -0.80380
O2682       O  0.52597305  0.81801809  0.24182882    -0.83740
O2683       O  0.96195877  0.81998933  0.24220665    -2.18450
O2684       O  0.93470785  0.68520453  0.19317557    -0.67130
O2685       O  0.89574356  0.71835105  0.21550325    -0.51690
C2686       C  0.90486460  0.69194933  0.19980359     0.71640
O2687       O  0.54405767  0.68015913  0.28721735    -0.60030
O2688       O  0.58521700  0.71325406  0.26713242    -0.52010
C2689       C  0.57438495  0.68729633  0.28237481     0.73450
O2690       O  0.93562208  0.68701383  0.28933146    -0.71430
O2691       O  0.89565978  0.72023861  0.26862419    -0.50110
C2692       C  0.90549466  0.69486993  0.28452232     0.74830
O2693       O  0.54420114  0.67935241  0.19376614    -0.66760
O2694       O  0.58505152  0.71182324  0.21480199    -0.53960
C2695       C  0.57446047  0.68508445  0.19984442     0.73210
Zr2696     Zr  0.99040698  0.70681117  0.20262902     2.77540
O2697       O  0.48951532  0.63703200  0.19508839    -0.97510
O2698       O  0.99125693  0.71997758  0.15799330    -0.78330
Zr2699     Zr  0.99062575  0.70398356  0.27643203     2.70070
O2700       O  0.98696567  0.63352899  0.27501451    -0.79580
O2701       O  0.49291493  0.70667777  0.32188279    -0.98660
Zr2702     Zr  0.55721201  0.75991082  0.24073143     2.21500
Zr2703     Zr  0.92712253  0.76394726  0.24157616     2.11130
O2704       O  0.95861533  0.70552421  0.23984410    -2.47350
O2705       O  0.52241564  0.70391173  0.23945849    -0.79370
O2706       O  0.95839017  0.76402761  0.20351940    -0.71560
O2707       O  0.52540554  0.75899371  0.27825341    -2.32520
O2708       O  0.52567662  0.76181506  0.20299445    -2.28730
O2709       O  0.95926800  0.76120283  0.27872834    -0.73320
H2710       H  0.94918873  0.84349183  0.24293213     0.78670
H2711       H  0.53934308  0.75782998  0.29282704     0.79760
H2712       H  0.94452337  0.68285376  0.23991834     0.81990
H2713       H  0.53981054  0.76188980  0.18845192     0.79590
H2714       H  0.51291850  0.79353279  0.32796567     0.42630
H2715       H  0.97384669  0.72272859  0.32687468     0.41600
H2716       H  0.49152848  0.62677357  0.25734756     0.41280
H2717       H  0.97295317  0.62658302  0.20691533     0.39210
H2718       H  0.96800399  0.72518658  0.15368930     0.42340
H2719       H  0.51792631  0.81207178  0.15507659     0.37130
H2720       H  0.49384442  0.89904397  0.21796527     0.43240
H2721       H  0.97638487  0.89511742  0.27004616     0.39660
H2722       H  0.97943114  0.63371153  0.17837522     0.44580
H2723       H  0.48334454  0.83160610  0.15309758     0.43300
H2724       H  0.49227580  0.89423539  0.29668685     0.43440
H2725       H  0.98698385  0.68011807  0.32730534     0.43790
C2726       C  0.62873774  0.63609734  0.15213034     0.03350
C2727       C  0.64084547  0.60526257  0.16613451    -0.12800
C2728       C  0.63510590  0.60326235  0.19190743     0.00850
C2729       C  0.61324672  0.62949421  0.20312234    -0.11330
C2730       C  0.59839893  0.65845248  0.18863648     0.03340
C2731       C  0.60640418  0.66186072  0.16321268    -0.10750
H2732       H  0.65756726  0.58486601  0.15743162     0.08930
H2733       H  0.60865195  0.62825165  0.22301259     0.06460
H2734       H  0.59653524  0.68561726  0.15243425     0.06310
C2735       C  0.61459607  0.64036074  0.33744932     0.03350
C2736       C  0.63992686  0.61983791  0.32539469    -0.12800
C2737       C  0.64118491  0.61744751  0.29930022     0.00850
C2738       C  0.62110768  0.64119470  0.28487025    -0.11330
C2739       C  0.59773631  0.66453765  0.29669807     0.03340
C2740       C  0.59318478  0.66202848  0.32261028    -0.10750
H2741       H  0.65742298  0.60327092  0.33614143     0.08930
H2742       H  0.62309811  0.64076170  0.26471628     0.06460
H2743       H  0.57217852  0.67620173  0.33098863     0.06310
C2744       C  0.87718397  0.63596259  0.33793852     0.03350
C2745       C  0.86311748  0.60457536  0.32477210    -0.12800
C2746       C  0.85531671  0.60783266  0.29945120     0.00850
C2747       C  0.86529760  0.64074246  0.28611318    -0.11330
C2748       C  0.88192011  0.67093167  0.29842402     0.03340
C2749       C  0.88544352  0.66964374  0.32446277    -0.10750
H2750       H  0.85747152  0.57766826  0.33414078     0.08930
H2751       H  0.86115997  0.64219497  0.26617133     0.06460
H2752       H  0.89746895  0.69388738  0.33370909     0.06310
C2753       C  0.60702958  0.88945189  0.33874845     0.03350
C2754       C  0.62778088  0.91545413  0.32621192    -0.12800
C2755       C  0.63525987  0.90980794  0.30091365     0.00850
C2756       C  0.62266801  0.87741139  0.28803511    -0.11330
C2757       C  0.60172056  0.85128278  0.30035197     0.03340
C2758       C  0.59471535  0.85703643  0.32591079    -0.10750
H2759       H  0.63681893  0.94115540  0.33584171     0.08930
H2760       H  0.62752293  0.87395162  0.26822640     0.06460
H2761       H  0.57644193  0.83884955  0.33502044     0.06310
C2762       C  0.88004378  0.89737427  0.33952628     0.03350
C2763       C  0.85447105  0.91607494  0.32727361    -0.12800
C2764       C  0.84918651  0.90960232  0.30186045     0.00850
C2765       C  0.86561570  0.87974743  0.28931368    -0.11330
C2766       C  0.88896638  0.85770471  0.30207163     0.03340
C2767       C  0.89651880  0.86717243  0.32717533    -0.10750
H2768       H  0.84031485  0.93796119  0.33704432     0.08930
H2769       H  0.86129167  0.87489940  0.26955499     0.06460
H2770       H  0.91673801  0.85291475  0.33650578     0.06310
O2771       O  0.56241412  0.94781818  0.53422087    -0.75080
O2772       O  0.53525330  0.98642483  0.56202754    -0.53980
C2773       C  0.55578650  0.95949552  0.55664161     0.78650
O2774       O  0.56312982  0.60275528  0.45106655    -0.59680
O2775       O  0.53236604  0.56715793  0.42347133    -0.52710
C2776       C  0.55538141  0.59162792  0.42891225     0.70670
O2777       O  0.56674258  0.60339089  0.53454883    -0.74240
O2778       O  0.53447681  0.57251528  0.56322126    -0.54800
C2779       C  0.55802403  0.59579846  0.55711849     0.76670
O2780       O  0.55431147  0.94633151  0.44840231    -0.59380
O2781       O  0.52346856  0.98295919  0.42259356    -0.52500
C2782       C  0.54399425  0.95582322  0.42637859     0.73260
Zr2783     Zr  0.54482019  0.96835199  0.49209301     2.54710
O2784       O  0.60451893  0.97258436  0.48873654    -0.79950
O2785       O  0.54501734  0.89772531  0.49181962    -0.93360
Zr2786     Zr  0.54611330  0.58547601  0.49313070     2.64680
O2787       O  0.60608865  0.58543233  0.49275902    -0.98320
O2788       O  0.54394770  0.65603339  0.49266281    -0.80380
O2789       O  0.54727147  0.52687925  0.51618186    -0.83740
O2790       O  0.54523025  0.52703811  0.46911963    -2.18450
O2791       O  0.92807627  0.95021910  0.45342111    -0.67130
O2792       O  0.95668155  0.98682515  0.42544385    -0.51690
C2793       C  0.93523890  0.96072369  0.43093900     0.71640
O2794       O  0.92725701  0.59928450  0.53728122    -0.60030
O2795       O  0.95886297  0.56510214  0.56459184    -0.52010
C2796       C  0.93487677  0.58775344  0.55929403     0.73450
O2797       O  0.92769630  0.60314306  0.45347913    -0.71430
O2798       O  0.95810099  0.56992478  0.42466091    -0.50110
C2799       C  0.93559766  0.59404447  0.43091520     0.74830
O2800       O  0.93533191  0.94668789  0.53904871    -0.66760
O2801       O  0.96550494  0.98531657  0.56485257    -0.53960
C2802       C  0.94552998  0.95711690  0.56101250     0.73210
Zr2803     Zr  0.94601843  0.96929873  0.49575484     2.77540
O2804       O  0.88639700  0.97374973  0.49945939    -0.97510
O2805       O  0.94463280  0.89875934  0.49425294    -0.78330
Zr2806     Zr  0.94736640  0.58629320  0.49518726     2.70070
O2807       O  0.88759222  0.59100323  0.49486458    -0.79580
O2808       O  0.95334420  0.65654228  0.49703691    -0.98660
Zr2809     Zr  0.99833266  0.52861309  0.54030606     2.21500
Zr2810     Zr  0.99404765  0.52820542  0.44781296     2.11130
O2811       O  0.94496239  0.52759540  0.47201123    -2.47350
O2812       O  0.94731368  0.52821035  0.51891948    -0.79370
O2813       O  0.99406089  0.96887550  0.47023651    -0.71560
O2814       O  0.99759431  0.58770598  0.51799332    -2.32520
O2815       O  0.99684274  0.96906675  0.51750282    -2.28730
O2816       O  0.99585402  0.58752616  0.47026171    -0.73320
H2817       H  0.56351859  0.52640558  0.45757948     0.78670
H2818       H  0.99798024  0.60976534  0.52920297     0.79760
H2819       H  0.92565155  0.52757171  0.46150775     0.81990
H2820       H  0.99746594  0.94697010  0.52848076     0.79590
H2821       H  0.53061423  0.66309996  0.50748652     0.42630
H2822       H  0.96770303  0.66299965  0.48265691     0.41600
H2823       H  0.87981305  0.56485680  0.49979808     0.41280
H2824       H  0.87946129  0.98835459  0.48451553     0.39210
H2825       H  0.96705908  0.89141180  0.48878904     0.42340
H2826       H  0.53125686  0.89017597  0.50631124     0.37130
H2827       H  0.61086591  0.49312232  0.50084110     0.43240
H2828       H  0.61210599  0.56594064  0.47992142     0.39660
H2829       H  0.87837448  0.94696082  0.49638907     0.44580
H2830       H  0.56772586  0.89070737  0.49664985     0.43300
H2831       H  0.61247113  0.61066747  0.48538407     0.43440
H2832       H  0.93140267  0.66642840  0.49229849     0.43790
C2833       C  0.89553576  0.88959767  0.38429797    -0.05560
C2834       C  0.89273713  0.91376612  0.36336349     0.00360
C2835       C  0.90339449  0.95300377  0.36507505    -0.08210
C2836       C  0.91415209  0.96717883  0.38819861    -0.05590
C2837       C  0.91783660  0.94313178  0.40912001     0.00350
C2838       C  0.90859970  0.90341021  0.40716570    -0.08120
C2839       C  0.91362996  0.87540704  0.42855964     0.62260
H2840       H  0.88784226  0.85958497  0.38241434     0.12950
H2841       H  0.92094541  0.99754097  0.38980445     0.12970
C2842       C  0.90555831  0.97977851  0.34250538     0.62490
F2843       F  0.90584090  0.83762615  0.42179790    -0.22670
F2844       F  0.89370692  0.88566908  0.44846633    -0.20000
F2845       F  0.94626132  0.87626320  0.43595398    -0.19680
F2846       F  0.87482076  0.99415520  0.33680688    -0.19730
F2847       F  0.91811886  0.96012190  0.32202627    -0.20050
F2848       F  0.92620670  0.01115961  0.34704778    -0.22730
C2849       C  0.58283877  0.90833631  0.40663938    -0.05560
C2850       C  0.55754764  0.93582877  0.40353239     0.00360
C2851       C  0.54717848  0.94477179  0.37853489    -0.08210
C2852       C  0.56437952  0.92842863  0.35839953    -0.05590
C2853       C  0.59025609  0.90271571  0.36175862     0.00350
C2854       C  0.59902727  0.89112527  0.38604194    -0.08120
C2855       C  0.62536820  0.86089024  0.38994473     0.62260
H2856       H  0.59027619  0.90066732  0.42535947     0.12950
H2857       H  0.55796388  0.93585941  0.33938668     0.12970
C2858       C  0.51811854  0.97080292  0.37213937     0.62490
F2859       F  0.63045188  0.85351768  0.41503309    -0.22670
F2860       F  0.65476705  0.87356948  0.37966486    -0.20000
F2861       F  0.61594671  0.82654648  0.37844595    -0.19680
F2862       F  0.52476025  0.50885059  0.37883086    -0.19730
F2863       F  0.49018926  0.95763698  0.38423509    -0.20050
F2864       F  0.51111688  0.97066932  0.34681268    -0.22730
C2865       C  0.91831871  0.64766730  0.37167995    -0.05560
C2866       C  0.88754689  0.63173024  0.36463754     0.00360
C2867       C  0.86984420  0.60908902  0.38248775    -0.08210
C2868       C  0.88609230  0.59775816  0.40442118    -0.05590
C2869       C  0.91753964  0.61187214  0.41029438     0.00350
C2870       C  0.93281071  0.63946372  0.39476169    -0.08120
C2871       C  0.96435364  0.65994152  0.40266679     0.62260
H2872       H  0.93222319  0.66502351  0.35858445     0.12950
H2873       H  0.87415760  0.57757844  0.41706761     0.12970
C2874       C  0.83408622  0.59649141  0.37972160     0.62490
F2875       F  0.97322899  0.68899206  0.38616359    -0.22670
F2876       F  0.98985348  0.63372499  0.40388635    -0.20000
F2877       F  0.95984976  0.67673900  0.42595756    -0.19680
F2878       F  0.83259413  0.55731386  0.37402662    -0.19730
F2879       F  0.81766595  0.61722539  0.36161963    -0.20050
F2880       F  0.81759193  0.60259470  0.40202953    -0.22730
C2881       C  0.61118879  0.59471993  0.37297307    -0.05560
C2882       C  0.60648708  0.63271818  0.36425045     0.00360
C2883       C  0.58988501  0.65962502  0.38012276    -0.08210
C2884       C  0.57279697  0.64534505  0.40108649    -0.05590
C2885       C  0.57545476  0.60647571  0.40818306     0.00350
C2886       C  0.59769917  0.58207951  0.39550063    -0.08120
C2887       C  0.60741923  0.54298458  0.40580965     0.62260
H2888       H  0.62400899  0.57372075  0.36159413     0.12950
H2889       H  0.55772935  0.66477313  0.41219385     0.12970
C2890       C  0.59042970  0.70326134  0.37652574     0.62490
F2891       F  0.63195454  0.52561116  0.39174754    -0.22670
F2892       F  0.58055057  0.51865227  0.40591386    -0.20000
F2893       F  0.61895833  0.54753621  0.42993897    -0.19680
F2894       F  0.55948821  0.71572733  0.36955234    -0.19730
F2895       F  0.61331532  0.71487376  0.35887802    -0.20050
F2896       F  0.59881906  0.72119148  0.39884439    -0.22730
C2897       C  0.69172989  0.83994750  0.10231151    -0.05560
C2898       C  0.67174261  0.83807461  0.08084451     0.00360
C2899       C  0.63873513  0.85142389  0.08254800    -0.08210
C2900       C  0.62708182  0.86557126  0.10578967    -0.05590
C2901       C  0.64705009  0.86620762  0.12718055     0.00350
C2902       C  0.67984054  0.85274729  0.12553146    -0.08120
C2903       C  0.70193192  0.85021182  0.14838959     0.62260
H2904       H  0.71699113  0.83028577  0.10093485     0.12950
H2905       H  0.60194421  0.87548243  0.10765648     0.12970
C2906       C  0.61543193  0.84931276  0.06047255     0.62490
F2907       F  0.73135256  0.83183679  0.14310106    -0.22670
F2908       F  0.68622725  0.82951830  0.16705231    -0.20000
F2909       F  0.70935086  0.88693834  0.15706961    -0.19680
F2910       F  0.61343013  0.81152819  0.05176117    -0.19730
F2911       F  0.62671307  0.87329419  0.04164970    -0.20050
F2912       F  0.58394687  0.86102232  0.06682950    -0.22730
C2913       C  0.81011027  0.81601234  0.10423637    -0.05560
C2914       C  0.81511833  0.83597911  0.08157201     0.00360
C2915       C  0.83393077  0.87099638  0.08188412    -0.08210
C2916       C  0.84766442  0.88373313  0.10474726    -0.05590
C2917       C  0.84258508  0.86318308  0.12695696     0.00350
C2918       C  0.82264903  0.82945732  0.12697159    -0.08120
C2919       C  0.81375664  0.80813073  0.15098488     0.62260
H2920       H  0.79607778  0.78922645  0.10424415     0.12950
H2921       H  0.86244810  0.90997591  0.10556366     0.12970
C2922       C  0.83901059  0.89544097  0.05868097     0.62490
F2923       F  0.79010316  0.77964871  0.14701825    -0.22670
F2924       F  0.80125963  0.83395852  0.16840381    -0.20000
F2925       F  0.84126203  0.79038246  0.16070849    -0.19680
F2926       F  0.80882576  0.90451460  0.04838346    -0.19730
F2927       F  0.85776875  0.87530788  0.04142969    -0.20050
F2928       F  0.85523907  0.92995395  0.06399494    -0.22730
C2929       C  0.69037976  0.66257214  0.10164809    -0.05560
C2930       C  0.67016674  0.66601020  0.08053738     0.00360
C2931       C  0.63594090  0.65797294  0.08278522    -0.08210
C2932       C  0.62337325  0.64682523  0.10633154    -0.05590
C2933       C  0.64367838  0.64492790  0.12750302     0.00350
C2934       C  0.67770201  0.65395648  0.12527060    -0.08120
C2935       C  0.70064952  0.65676387  0.14770608     0.62260
H2936       H  0.71652272  0.66834115  0.09969232     0.12950
H2937       H  0.59738901  0.64045327  0.10860185     0.12970
C2938       C  0.61258623  0.66282256  0.06096013     0.62490
F2939       F  0.72983306  0.67571081  0.14189160    -0.22670
F2940       F  0.70849142  0.62012669  0.15578327    -0.20000
F2941       F  0.68591812  0.67721774  0.16696480    -0.19680
F2942       F  0.62040812  0.63664749  0.04224569    -0.19730
F2943       F  0.61502628  0.70020418  0.05184043    -0.20050
F2944       F  0.58012579  0.65632717  0.06782662    -0.22730
C2945       C  0.80148025  0.64347465  0.09242330    -0.05560
C2946       C  0.82001762  0.66956826  0.07842783     0.00360
C2947       C  0.85162416  0.68087325  0.08658025    -0.08210
C2948       C  0.86371885  0.66526669  0.10895302    -0.05590
C2949       C  0.84395914  0.64198577  0.12473582     0.00350
C2950       C  0.81222043  0.62972274  0.11564714    -0.08120
C2951       C  0.78848239  0.60335862  0.12967105     0.62260
H2952       H  0.77752077  0.63516882  0.08519794     0.12950
H2953       H  0.88830428  0.67313689  0.11495532     0.12970
C2954       C  0.87136652  0.71131992  0.07260659     0.62490
F2955       F  0.75738336  0.60277278  0.11909600    -0.22670
F2956       F  0.78478531  0.61610092  0.15397797    -0.20000
F2957       F  0.79974997  0.56563715  0.12884007    -0.19680
F2958       F  0.85355383  0.74533322  0.07148620    -0.19730
F2959       F  0.87786505  0.69838933  0.04864511    -0.20050
F2960       F  0.90108973  0.71951596  0.08418730    -0.22730
C2961       C  0.90282645  0.91717140  0.58369235    -0.05560
C2962       C  0.93347106  0.93670238  0.58398524     0.00360
C2963       C  0.95079943  0.93961051  0.60716227    -0.08210
C2964       C  0.93530132  0.92758742  0.62900506    -0.05590
C2965       C  0.90474532  0.90894872  0.62892541     0.00350
C2966       C  0.88840778  0.90233556  0.60585845    -0.08120
C2967       C  0.85662602  0.87906860  0.60451900     0.62260
H2968       H  0.88987385  0.91436900  0.56611331     0.12950
H2969       H  0.94744358  0.93244825  0.64677762     0.12970
C2970       C  0.98634973  0.95302082  0.60936631     0.62490
F2971       F  0.84697595  0.87242968  0.58006020    -0.22670
F2972       F  0.83158888  0.89872752  0.61649468    -0.20000
F2973       F  0.86095120  0.84350481  0.61583124    -0.19680
F2974       F  0.98866388  0.49295056  0.60748538    -0.19730
F2975       F  0.00425515  0.93513946  0.59082010    -0.20050
F2976       F  0.00034971  0.94269131  0.63193917    -0.22730
C2977       C  0.91541052  0.63686166  0.58972692    -0.05560
C2978       C  0.91354372  0.59895464  0.58018491     0.00360
C2979       C  0.89497381  0.57063719  0.59310382    -0.08210
C2980       C  0.88468041  0.57870144  0.61737560    -0.05590
C2981       C  0.89042176  0.61486434  0.62847319     0.00350
C2982       C  0.90271035  0.64579124  0.61360952    -0.08120
C2983       C  0.90050565  0.68779837  0.62211389     0.62260
H2984       H  0.92807029  0.65887258  0.57891230     0.12950
H2985       H  0.87377659  0.55546237  0.62826371     0.12970
C2986       C  0.88660086  0.53076413  0.58304304     0.62490
F2987       F  0.90918284  0.71305578  0.60314459    -0.22670
F2988       F  0.92103071  0.69510406  0.64206403    -0.20000
F2989       F  0.86844455  0.69574613  0.62912431    -0.19680
F2990       F  0.90155597  0.50378285  0.59803092    -0.19730
F2991       F  0.89631890  0.52510344  0.55855895    -0.20050
F2992       F  0.85288217  0.52505877  0.58424433    -0.22730
C2993       C  0.59223942  0.95045763  0.62112658    -0.05560
C2994       C  0.58985800  0.91077436  0.62577120     0.00360
C2995       C  0.57992580  0.88547881  0.60599137    -0.08210
C2996       C  0.57132885  0.90169483  0.58256468    -0.05590
C2997       C  0.57252631  0.94199504  0.57858198     0.00350
C2998       C  0.58442453  0.96627741  0.59798474    -0.08120
C2999       C  0.58760310  0.50952446  0.59507495     0.62260
H3000       H  0.59919044  0.96970178  0.63634479     0.12950
H3001       H  0.56159302  0.88323091  0.56785342     0.12970
C3002       C  0.57672168  0.84203665  0.60950518     0.62490
F3003       F  0.61026360  0.52422421  0.61173344    -0.22670
F3004       F  0.55767655  0.52679594  0.59999241    -0.20000
F3005       F  0.59823243  0.51838104  0.57121211    -0.19680
F3006       F  0.54653599  0.83344825  0.62016914    -0.19730
F3007       F  0.60160067  0.82837088  0.62463476    -0.20050
F3008       F  0.57874491  0.82269648  0.58681963    -0.22730
C3009       C  0.60860687  0.60075648  0.58290721    -0.05560
C3010       C  0.57679720  0.61384757  0.57787284     0.00360
C3011       C  0.56253391  0.64111605  0.59413057    -0.08210
C3012       C  0.57825699  0.64899365  0.61698510    -0.05590
C3013       C  0.60493369  0.62634199  0.62558725     0.00350
C3014       C  0.62338420  0.60612565  0.60664980    -0.08120
C3015       C  0.65844963  0.59136019  0.60992271     0.62260
H3016       H  0.62079950  0.58385406  0.56858824     0.12950
H3017       H  0.56792316  0.67099510  0.62905170     0.12970
C3018       C  0.53067597  0.66126337  0.58737874     0.62490
F3019       F  0.67154560  0.57779410  0.58764015    -0.22670
F3020       F  0.65962416  0.56091557  0.62656575    -0.20000
F3021       F  0.67855693  0.62146567  0.61793649    -0.19680
F3022       F  0.00514271  0.63456213  0.58640265    -0.19730
F3023       F  0.53402357  0.67863689  0.56427529    -0.20050
F3024       F  0.52244449  0.68963461  0.60465280    -0.22730
C3025       C  0.63688836  0.61497246  0.88600360    -0.05560
C3026       C  0.63316823  0.63856587  0.86496998     0.00360
C3027       C  0.64590084  0.67690616  0.86522076    -0.08210
C3028       C  0.66109021  0.69071663  0.88699123    -0.05590
C3029       C  0.66542916  0.66720947  0.90802858     0.00350
C3030       C  0.65306439  0.62849938  0.90767334    -0.08120
C3031       C  0.65790148  0.60099956  0.92942078     0.62260
H3032       H  0.62765739  0.58545269  0.88500149     0.12950
H3033       H  0.66998105  0.72032947  0.88767355     0.12970
C3034       C  0.64450453  0.70289631  0.84237975     0.62490
F3035       F  0.64783624  0.56357335  0.92360312    -0.22670
F3036       F  0.63963646  0.61336605  0.94974692    -0.20000
F3037       F  0.69088292  0.59973997  0.93579051    -0.19680
F3038       F  0.61221580  0.71236370  0.83744947    -0.19730
F3039       F  0.65788507  0.68408951  0.82188089    -0.20050
F3040       F  0.66193612  0.73714695  0.84585422    -0.22730
C3041       C  0.84055684  0.88661191  0.88172281    -0.05560
C3042       C  0.85743651  0.86079029  0.86577314     0.00360
C3043       C  0.85718430  0.82047200  0.87168433    -0.08210
C3044       C  0.84006642  0.80797693  0.89309735    -0.05590
C3045       C  0.82270090  0.83373270  0.90842133     0.00350
C3046       C  0.82256461  0.87366552  0.90265491    -0.08120
C3047       C  0.80204609  0.90203160  0.91773379     0.62260
H3048       H  0.84051591  0.91712309  0.87702180     0.12950
H3049       H  0.83974366  0.77752219  0.89800892     0.12970
C3050       C  0.87398040  0.79005817  0.85557281     0.62490
F3051       F  0.80222604  0.93867979  0.90730383    -0.22670
F3052       F  0.81444701  0.90503594  0.94167226    -0.20000
F3053       F  0.76970755  0.88918287  0.91878592    -0.19680
F3054       F  0.90760796  0.79280650  0.85880225    -0.19730
F3055       F  0.86606360  0.79515238  0.83072527    -0.20050
F3056       F  0.86452644  0.75274469  0.86201639    -0.22730
C3057       C  0.66274419  0.84641277  0.86081372    -0.05560
C3058       C  0.63427627  0.86808170  0.86510003     0.00360
C3059       C  0.62313358  0.87381683  0.88983484    -0.08210
C3060       C  0.64045419  0.85616068  0.90957565    -0.05590
C3061       C  0.66928611  0.83431214  0.90542051     0.00350
C3062       C  0.68123955  0.83046164  0.88029982    -0.08120
C3063       C  0.71389448  0.81139399  0.87337844     0.62260
H3064       H  0.67080409  0.84283222  0.84163869     0.12950
H3065       H  0.63154424  0.85964359  0.92851430     0.12970
C3066       C  0.59381360  0.89949004  0.89529054     0.62490
F3067       F  0.72184147  0.81630861  0.84841393    -0.22670
F3068       F  0.71239491  0.77192813  0.87761844    -0.20000
F3069       F  0.73914158  0.82789450  0.88718603    -0.19680
F3070       F  0.56585533  0.88388654  0.88439229    -0.19730
F3071       F  0.59954099  0.93609489  0.88569059    -0.20050
F3072       F  0.58806810  0.90325986  0.92068645    -0.22730
C3073       C  0.85019820  0.64787845  0.90976955    -0.05560
C3074       C  0.82152709  0.66989333  0.90540143     0.00360
C3075       C  0.81094768  0.67488019  0.88008230    -0.08210
C3076       C  0.82996416  0.65887546  0.86075624    -0.05590
C3077       C  0.85795301  0.63665695  0.86526157     0.00350
C3078       C  0.86835423  0.63070472  0.89007843    -0.08120
C3079       C  0.89790837  0.60556203  0.89560674     0.62260
H3080       H  0.85830476  0.64386239  0.92881762     0.12950
H3081       H  0.82270771  0.66283485  0.84147942     0.12970
C3082       C  0.77944414  0.69579592  0.87269097     0.62490
F3083       F  0.90328156  0.60202275  0.92102100    -0.22670
F3084       F  0.92584052  0.62166292  0.88498368    -0.20000
F3085       F  0.89287985  0.56882217  0.88575130    -0.19680
F3086       F  0.78211108  0.73488141  0.87836591    -0.19730
F3087       F  0.75274254  0.67958358  0.88498278    -0.20050
F3088       F  0.77305149  0.69286734  0.84733966    -0.22730
loop_ 
_geom_bond_atom_site_label_1 
_geom_bond_atom_site_label_2 
_geom_bond_distance 
_geom_bond_site_symmetry_2 
_ccdc_geom_bond_type 
O1          Zr13   2.411       .  S
O1            C3   1.283       .  A
O2        Zr1583   2.487       .  S
O2            C3   1.298       .  A
C3           C67   1.491       .  S
O4          Zr16   2.403       .  S
O4            C6   1.279       .  A
O5          Zr40   2.491       .  S
O5            C6   1.300       .  A
C6          C190   1.478       .  S
O7          Zr16   2.396       .  S
O7            C9   1.280       .  A
O8        Zr1583   2.456       .  S
O8            C9   1.291       .  A
C9          C183   1.464       .  S
O10         Zr13   2.418       .  S
O10          C12   1.285       .  A
O11         Zr40   2.485       .  S
O11          C12   1.298       .  A
C12         C145   1.490       .  S
Zr13         O14   2.432       .  S
Zr13         O15   2.435       .  S
Zr13         O19   2.362       .  S
Zr13         O20   2.362       .  S
Zr13         O43   2.365       .  S
Zr13       O1589   2.368       .  S
O14          H57   0.990       .  S
O15          H56   0.989       .  S
O15          H60   0.990       .  S
Zr16         O17   2.437       .  S
Zr16         O18   2.435       .  S
Zr16         O20   2.360       .  S
Zr16         O19   2.362       .  S
Zr16         O46   2.363       .  S
Zr16       O1588   2.363       .  S
O17          H58   0.990       .  S
O17          H61   0.990       .  S
O18          H51   0.990       .  S
O19       Zr1583   2.387       .  S
O20         Zr40   2.393       .  S
O20          H47   0.965       .  S
O21         Zr33   2.413       .  S
O21          C23   1.283       .  A
O22       Zr1584   2.485   1_455  S
O22          C23   1.298       .  A
C23         C138   1.488       .  S
O24         Zr36   2.413       .  S
O24          C26   1.284       .  A
O25         Zr39   2.471   1_455  S
O25          C26   1.295       .  A
C26         C163   1.478       .  S
O27         Zr36   2.417       .  S
O27          C29   1.283       .  A
O28       Zr1584   2.480   1_455  S
O28          C29   1.298       .  A
C29         C174   1.478       .  S
O30         Zr33   2.423       .  S
O30          C32   1.286       .  A
O31         Zr39   2.462   1_455  S
O31          C32   1.293       .  A
C32         C154   1.483       .  S
Zr33         O34   2.438       .  S
Zr33         O35   2.435       .  S
Zr33         O41   2.366       .  S
Zr33         O42   2.360       .  S
Zr33         O45   2.367   1_455  S
Zr33       O1587   2.373   1_455  S
O34          H54   0.990       .  S
O34          H59   0.990       .  S
O35          H55   0.990       .  S
Zr36         O37   2.434       .  S
Zr36         O38   2.436       .  S
Zr36         O42   2.364       .  S
Zr36         O41   2.362       .  S
Zr36         O44   2.366   1_455  S
Zr36       O1590   2.368   1_455  S
O37          H53   0.990       .  S
O38          H52   0.990       .  S
O38          H62   0.990       .  S
Zr39       O1546   2.487       .  S
Zr39       O1552   2.456       .  S
Zr39         O42   2.393   1_655  S
Zr39         O44   2.403       .  S
Zr39         O45   2.401       .  S
Zr39       O1563   2.387       .  S
Zr40       O1566   2.485       .  S
Zr40       O1572   2.480       .  S
Zr40         O43   2.407       .  S
Zr40         O46   2.399       .  S
Zr40       O1585   2.402       .  S
O41       Zr1584   2.402   1_455  S
O41          H49   0.966       .  S
O43       Zr1577   2.373       .  S
O44       Zr1560   2.363       .  S
O44          H48   0.966       .  S
O45       Zr1557   2.368       .  S
O45          H50   0.966       .  S
O46       Zr1580   2.368       .  S
C63         C761   1.487       .  S
C63          C64   1.397       .  A
C63          C68   1.402       .  A
C64          C65   1.400       .  A
C64          H69   1.085       .  S
C65          C80   1.486       .  S
C65          C66   1.417       .  A
C66          C67   1.415       .  A
C66          H70   1.082       .  S
C67          C68   1.415       .  A
C68          H71   1.084       .  S
O72         Zr84   2.450       .  S
O72          C74   1.290       .  A
O73        Zr882   2.413   1_545  S
O73          C74   1.284       .  A
C74         C181   1.471       .  S
O75         Zr87   2.456       .  S
O75          C77   1.293       .  A
O76        Zr883   2.417       .  S
O76          C77   1.283       .  A
C77         C156   1.481       .  S
O78         Zr87   2.466       .  S
O78          C80   1.295       .  A
O79        Zr882   2.421   1_545  S
O79          C80   1.283       .  A
O81         Zr84   2.465       .  S
O81          C83   1.292       .  A
O82        Zr883   2.421       .  S
O82          C83   1.286       .  A
C83         C165   1.484       .  S
Zr84         O85   2.433       .  S
Zr84         O86   2.436       .  S
Zr84         O90   2.382       .  S
Zr84         O91   2.373       .  S
Zr84        O114   2.377       .  S
Zr84        O888   2.379       .  S
O85         H128   0.990       .  S
O86         H127   0.990       .  S
O86         H131   0.990       .  S
Zr87         O88   2.435       .  S
Zr87         O89   2.435       .  S
Zr87         O91   2.373       .  S
Zr87         O90   2.368       .  S
Zr87        O887   2.368   1_545  S
Zr87        O889   2.372   1_545  S
O88         H129   0.990       .  S
O88         H132   0.990       .  S
O89         H122   0.990       .  S
O90        Zr882   2.382   1_545  S
O91        Zr883   2.386       .  S
O91         H118   0.966       .  S
O92        Zr104   2.486       .  S
O92          C94   1.296       .  A
O93        Zr111   2.417       .  S
O93          C94   1.284       .  A
C94         C172   1.485       .  S
O95        Zr107   2.453       .  S
O95          C97   1.292       .  A
O96        Zr110   2.433       .  S
O96          C97   1.286       .  A
C97         C147   1.488       .  S
O98        Zr107   2.455       .  S
O98         C100   1.292       .  A
O99        Zr111   2.421       .  S
O99         C100   1.283       .  A
C100        C136   1.482       .  S
O101       Zr104   2.482       .  S
O101        C103   1.296       .  A
O102       Zr110   2.399       .  S
O102        C103   1.281       .  A
C103        C192   1.475       .  S
Zr104       O105   2.435       .  S
Zr104       O106   2.435       .  S
Zr104       O112   2.381       .  S
Zr104       O113   2.381       .  S
Zr104       O116   2.380       .  S
Zr104       O886   2.383       .  S
O105        H125   0.990       .  S
O105        H130   0.990       .  S
O106        H126   0.990       .  S
Zr107       O108   2.434       .  S
Zr107       O109   2.436       .  S
Zr107       O113   2.371       .  S
Zr107       O112   2.369       .  S
Zr107       O117   2.369       .  S
Zr107       O115   2.370       .  S
O108        H124   0.990       .  S
O109        H123   0.990       .  S
O109        H133   0.990       .  S
Zr110       O845   2.413       .  S
Zr110       O851   2.421       .  S
Zr110       O113   2.383       .  S
Zr110       O115   2.380       .  S
Zr110       O116   2.395       .  S
Zr110       O862   2.382       .  S
Zr111       O848   2.417       .  S
Zr111       O854   2.421       .  S
Zr111       O112   2.389       .  S
Zr111       O117   2.385       .  S
Zr111       O863   2.386       .  S
Zr111       O886   2.387       .  S
O112        H120   0.966       .  S
O114       Zr876   2.383   1_545  S
O114       Zr883   2.387       .  S
O115       Zr859   2.368       .  S
O115        H119   0.966       .  S
O116       Zr856   2.379       .  S
O116        H893   0.966       .  S
O117       Zr859   2.372       .  S
H121        O888   0.966       .  S
C134        C742   1.488       .  S
C134        C135   1.396       .  A
C134        C139   1.402       .  A
C135        C136   1.401       .  A
C135        H140   1.085       .  S
C136        C137   1.414       .  A
C137        C138   1.413       .  A
C137        H141   1.084       .  S
C138        C139   1.416       .  A
C139        H142   1.084       .  S
C143        C726   1.502       .  S
C143        C144   1.405       .  A
C143        C148   1.401       .  A
C144        C145   1.413       .  A
C144        H149   1.079       .  S
C145        C146   1.414       .  A
C146        C147   1.416       .  A
C146        H150   1.083       .  S
C147        C148   1.404       .  A
C148        H151   1.084       .  S
C152        C710   1.477       .  S
C152        C153   1.398       .  A
C152        C157   1.393       .  A
C153        C154   1.407       .  A
C153        H158   1.084       .  S
C154        C155   1.413       .  A
C155        C156   1.416       .  A
C155        H159   1.083       .  S
C156        C157   1.401       .  A
C157        H160   1.085       .  S
C161        C697   1.533       .  S
C161        C162   1.421       .  A
C161        C166   1.417       .  A
C162        C163   1.400       .  A
C162        H167   1.080       .  S
C163        C164   1.397       .  A
C164        C165   1.408       .  A
C164        H168   1.083       .  S
C165        C166   1.410       .  A
C166        H169   1.067       .  S
C170        C678   1.494       .  S
C170        C171   1.413       .  A
C170        C175   1.406       .  A
C171        C172   1.402       .  A
C171        H176   1.084       .  S
C172        C173   1.411       .  A
C173        C174   1.408       .  A
C173        H177   1.084       .  S
C174        C175   1.406       .  A
C175        H178   1.081       .  S
C179        C665   1.479       .  S
C179        C180   1.404       .  A
C179        C184   1.399       .  A
C180        C181   1.402       .  A
C180        H185   1.084       .  S
C181        C182   1.408       .  A
C182        C183   1.402       .  A
C182        H186   1.083       .  S
C183        C184   1.399       .  A
C184        H187   1.083       .  S
C188        C649   1.487       .  S
C188        C189   1.408       .  A
C188        C193   1.404       .  A
C189        C190   1.400       .  A
C189        H194   1.085       .  S
C190        C191   1.405       .  A
C191        C192   1.414       .  A
C191        H195   1.084       .  S
C192        C193   1.404       .  A
C193        H196   1.082       .  S
O197       Zr209   2.449       .  S
O197        C199   1.288       .  A
O198       Zr235   2.420       .  S
O198        C199   1.286       .  A
C199        C729   1.479       .  S
O200       Zr212   2.451   1_554  S
O200        C202   1.288       .  A
O201       Zr236   2.410       .  S
O201        C202   1.284       .  A
C202        C630   1.468       .  S
O203       Zr212   2.470       .  S
O203        C205   1.293       .  A
O204       Zr235   2.400       .  S
O204        C205   1.278       .  A
C205        C758   1.506       .  S
O206       Zr209   2.465   1_554  S
O206        C208   1.290       .  A
O207       Zr236   2.380       .  S
O207        C208   1.280       .  A
C208        C598   1.495       .  S
Zr209       O210   2.434       .  S
Zr209       O211   2.433       .  S
Zr209       O215   2.379       .  S
Zr209       O216   2.368   1_556  S
Zr209       O239   2.370   1_556  S
Zr209       O241   2.380       .  S
O210        H253   0.990       .  S
O211        H252   0.990       .  S
O211        H256   0.990       .  S
Zr212       O213   2.435       .  S
Zr212       O214   2.435       .  S
Zr212       O216   2.380   1_556  S
Zr212       O215   2.370       .  S
Zr212       O240   2.375       .  S
Zr212       O242   2.386   1_556  S
O213        H254   0.990   1_556  S
O213        H257   0.990       .  S
O214        H247   0.990       .  S
O215       Zr235   2.367       .  S
O216       Zr236   2.373       .  S
O216        H243   0.966       .  S
O217       Zr229   2.478   1_554  S
O217        C219   1.293       .  A
O218       Zr236   2.399       .  S
O218        C219   1.283       .  A
C219        C582   1.498       .  S
O220       Zr232   2.434       .  S
O220        C222   1.285       .  A
O221       Zr235   2.417       .  S
O221        C222   1.287       .  A
C222        C713   1.484       .  S
O223       Zr232   2.463   1_554  S
O223        C225   1.289       .  A
O224       Zr236   2.389       .  S
O224        C225   1.281       .  A
C225        C614   1.486       .  S
O226       Zr229   2.477       .  S
O226        C228   1.295       .  A
O227       Zr235   2.394       .  S
O227        C228   1.277       .  A
C228        C745   1.504       .  S
Zr229       O230   2.435       .  S
Zr229       O231   2.433       .  S
Zr229       O237   2.379   1_556  S
Zr229       O238   2.375       .  S
Zr229       O241   2.380       .  S
Zr229       O239   2.379   1_556  S
O230        H250   0.990   1_556  S
O230        H255   0.990       .  S
O231        H251   0.990   1_556  S
Zr232       O233   2.434       .  S
Zr232       O234   2.434       .  S
Zr232       O238   2.381       .  S
Zr232       O237   2.370   1_556  S
Zr232       O242   2.373   1_556  S
Zr232       O240   2.385       .  S
O233        H249   0.990       .  S
O234        H248   0.990   1_556  S
O234        H258   0.990       .  S
Zr235       O238   2.373       .  S
Zr235       O240   2.375       .  S
Zr235       O241   2.379       .  S
Zr236       O237   2.369       .  S
Zr236       O239   2.369       .  S
Zr236       O242   2.369       .  S
O237        H245   0.966       .  S
O240        H244   0.966       .  S
O241        H246   0.966       .  S
C259        C585   1.486       .  S
C259        C260   1.401       .  A
C259        C264   1.399       .  A
C260        C261   1.411       .  A
C260        H265   1.084       .  S
C261        C288   1.470       .  S
C261        C262   1.399       .  A
C262        C263   1.403       .  A
C262        H266   1.084       .  S
C263        C350   1.456       .  S
C263        C264   1.402       .  A
C264        H267   1.084       .  S
C268        C633   1.512       .  S
C268        C269   1.415       .  A
C268        C273   1.405       .  A
C269        C270   1.402       .  A
C269        H274   1.082       .  S
C270        C370   1.467       .  S
C270        C271   1.402       .  A
C271        C272   1.399       .  A
C271        H275   1.082       .  S
C272        C308   1.469       .  S
C272        C273   1.402       .  A
C273        H276   1.071       .  S
C277        C601   1.473       .  S
C277        C278   1.397       .  A
C277        C282   1.394       .  A
C278        C279   1.408       .  A
C278        H283   1.085       .  S
C279        C297   1.462       .  S
C279        C280   1.400       .  A
C280        C281   1.399       .  A
C280        H284   1.084       .  S
C281        C359   1.451       .  S
C281        C282   1.396       .  A
C282        H285   1.085       .  S
O286       Zr298   2.383       .  S
O286        C288   1.277       .  A
O287      Zr1096   2.470       .  S
O287        C288   1.295       .  A
O289       Zr301   2.391       .  S
O289        C291   1.276       .  A
O290      Zr1097   2.447       .  S
O290        C291   1.291       .  A
C291        C448   1.450       .  S
O292       Zr301   2.395       .  S
O292        C294   1.277       .  A
O293      Zr1096   2.453       .  S
O293        C294   1.292       .  A
C294        C439   1.458       .  S
O295       Zr298   2.392       .  S
O295        C297   1.279       .  A
O296      Zr1097   2.443       .  S
O296        C297   1.290       .  A
Zr298       O299   2.434       .  S
Zr298       O300   2.438       .  S
Zr298       O304   2.362       .  S
Zr298       O305   2.355       .  S
Zr298      O1100   2.351       .  S
Zr298      O1102   2.355       .  S
O299        H342   0.990       .  S
O300        H341   0.990       .  S
O300        H345   0.990       .  S
Zr301       O302   2.438       .  S
Zr301       O303   2.436       .  S
Zr301       O305   2.370       .  S
Zr301       O304   2.362       .  S
Zr301      O1101   2.365       .  S
Zr301      O1103   2.370       .  S
O302        H343   0.990       .  S
O302        H346   0.990       .  S
O303        H336   0.990       .  S
O304      Zr1096   2.380       .  S
O305      Zr1097   2.389       .  S
O305        H332   0.966       .  S
O306       Zr318   2.418       .  S
O306        C308   1.284       .  A
O307       Zr325   2.449       .  S
O307        C308   1.290       .  A
O309       Zr321   2.397       .  S
O309        C311   1.278       .  A
O310       Zr324   2.451       .  S
O310        C311   1.293       .  A
C311        C421   1.459       .  S
O312       Zr321   2.418       .  S
O312        C314   1.282       .  A
O313       Zr325   2.438       .  S
O313        C314   1.288       .  A
C314        C430   1.459       .  S
O315       Zr318   2.425       .  S
O315        C317   1.286       .  A
O316       Zr324   2.440       .  S
O316        C317   1.289       .  A
C317        C412   1.470       .  S
Zr318       O319   2.436       .  S
Zr318       O320   2.430       .  S
Zr318       O326   2.362       .  S
Zr318       O327   2.355       .  S
Zr318       O330   2.351       .  S
Zr318       O328   2.359       .  S
O319        H339   0.990       .  S
O319        H344   0.990       .  S
O320        H340   0.989       .  S
Zr321       O322   2.434       .  S
Zr321       O323   2.434       .  S
Zr321       O327   2.370       .  S
Zr321       O326   2.361       .  S
Zr321       O331   2.359       .  S
Zr321       O329   2.372       .  S
O322        H338   0.990       .  S
O323        H337   0.990       .  S
O323        H347   0.990       .  S
Zr324      O1059   2.470   1_545  S
Zr324      O1065   2.453   1_545  S
Zr324       O327   2.388       .  S
Zr324       O329   2.401       .  S
Zr324       O330   2.385       .  S
Zr324      O1076   2.380   1_545  S
Zr325      O1062   2.447   1_545  S
Zr325      O1068   2.443   1_545  S
Zr325       O326   2.393       .  S
Zr325       O328   2.381       .  S
Zr325       O331   2.395       .  S
Zr325      O1077   2.389   1_545  S
O326        H334   0.965       .  S
O328      Zr1070   2.351   1_545  S
O329      Zr1073   2.365   1_545  S
O329        H333   0.966       .  S
O330      Zr1070   2.355   1_545  S
O330        H335   0.966       .  S
O331      Zr1073   2.370   1_545  S
O348       Zr360   2.402   1_455  S
O348        C350   1.279       .  A
O349       Zr386   2.445       .  S
O349        C350   1.291       .  A
O351      Zr1907   2.385       .  S
O351        C353   1.277       .  A
O352       Zr387   2.464       .  S
O352        C353   1.294       .  A
C353        C450   1.470       .  S
O354       Zr363   2.383   1_455  S
O354        C356   1.277       .  A
O355       Zr386   2.462       .  S
O355        C356   1.293       .  A
C356        C441   1.468       .  S
O357      Zr1904   2.396       .  S
O357        C359   1.278       .  A
O358       Zr387   2.443       .  S
O358        C359   1.291       .  A
Zr360      O1901   2.396       .  S
Zr360       O361   2.433       .  S
Zr360      O1906   2.436       .  S
Zr360       O366   2.365   1_655  S
Zr360       O392   2.364   1_655  S
Zr360      O1911   2.369       .  S
Zr360      O1934   2.367       .  S
O361        H404   0.990       .  S
O362      Zr1904   2.436       .  S
O362       H1947   0.990       .  S
O362       H1951   0.990       .  S
Zr363      O1895   2.385       .  S
Zr363       O364   2.437       .  S
Zr363      O1909   2.436       .  S
Zr363       O366   2.360   1_655  S
Zr363       O391   2.354   1_655  S
Zr363      O1911   2.358       .  S
Zr363      O1937   2.358       .  S
O364        H408   0.990       .  S
O364       H1949   0.990       .  S
O365      Zr1907   2.436       .  S
O365       H1942   0.990       .  S
O366       Zr386   2.379       .  S
O367       Zr387   2.387       .  S
O367      Zr1904   2.369       .  S
O367      Zr1907   2.358       .  S
O367        H394   0.966       .  S
O368       Zr380   2.430       .  S
O368        C370   1.284       .  A
O369       Zr387   2.449       .  S
O369        C370   1.291       .  A
O371      Zr1927   2.398   1_455  S
O371        C373   1.280       .  A
O372       Zr386   2.436       .  S
O372        C373   1.289       .  A
C373        C423   1.457       .  S
O374       Zr383   2.406       .  S
O374        C376   1.282       .  A
O375       Zr387   2.448       .  S
O375        C376   1.290       .  A
C376        C432   1.464       .  S
O377      Zr1924   2.432   1_455  S
O377        C379   1.285       .  A
O378       Zr386   2.439       .  S
O378        C379   1.290       .  A
C379        C414   1.467       .  S
Zr380      O1921   2.432       .  S
Zr380       O382   2.435       .  S
Zr380      O1925   2.437       .  S
Zr380       O388   2.372       .  S
Zr380       O390   2.370       .  S
Zr380      O1933   2.367       .  S
Zr380      O1936   2.368       .  S
O381      Zr1924   2.437       .  S
O381       H1945   0.990       .  S
O381       H1950   0.990       .  S
O382        H402   0.990       .  S
Zr383      O1915   2.398       .  S
Zr383       O384   2.433       .  S
Zr383      O1929   2.436       .  S
Zr383       O388   2.354       .  S
Zr383       O393   2.358       .  S
Zr383      O1933   2.361       .  S
Zr383      O1935   2.358       .  S
O384       H1944   0.990       .  S
O385      Zr1927   2.436       .  S
O385       H1943   0.990       .  S
O385       H1953   0.990       .  S
Zr386       O389   2.385       .  S
Zr386       O391   2.386       .  S
Zr386       O392   2.395       .  S
Zr387       O388   2.395       .  S
Zr387       O390   2.398       .  S
Zr387       O393   2.384       .  S
O388        H396   0.965       .  S
O389      Zr1924   2.367   1_455  S
O389      Zr1927   2.361   1_455  S
O390      Zr1904   2.367       .  S
O391      Zr1927   2.358   1_455  S
O391        H395   0.966       .  S
O392      Zr1924   2.368   1_455  S
O392        H397   0.966       .  S
O393      Zr1907   2.358       .  S
H398       O1909   0.990   1_455  S
H399       O1929   0.990       .  S
H400       O1928   0.990       .  S
H401       O1925   0.990       .  S
H403       O1906   0.990   1_455  S
H405       O1908   0.990       .  S
H406       O1925   0.990       .  S
H407       O1906   0.990       .  S
H409       O1929   0.990       .  S
C410        C617   1.482       .  S
C410        C411   1.397       .  A
C410        C415   1.402       .  A
C411        C412   1.401       .  A
C411        H416   1.084       .  S
C412        C413   1.403       .  A
C413        C414   1.407       .  A
C413        H417   1.082       .  S
C414        C415   1.404       .  A
C415        H418   1.084       .  S
C419        C566   1.496       .  S
C419        C420   1.406       .  A
C419        C424   1.401       .  A
C420        C421   1.400       .  A
C420        H425   1.083       .  S
C421        C422   1.397       .  A
C422        C423   1.397       .  A
C422        H426   1.082       .  S
C423        C424   1.402       .  A
C424        H427   1.081       .  S
C428        C550   1.499       .  S
C428        C429   1.406       .  A
C428        C433   1.409       .  A
C429        C430   1.398       .  A
C429        H434   1.080       .  S
C430        C431   1.401       .  A
C431        C432   1.399       .  A
C431        H435   1.082       .  S
C432        C433   1.403       .  A
C433        H436   1.083       .  S
C437        C537   1.478       .  S
C437        C438   1.399       .  A
C437        C442   1.399       .  A
C438        C439   1.400       .  A
C438        H443   1.085       .  S
C439        C440   1.403       .  A
C440        C441   1.401       .  A
C440        H444   1.084       .  S
C441        C442   1.410       .  A
C442        H445   1.085       .  S
C446        C518   1.484       .  S
C446        C447   1.393       .  A
C446        C451   1.403       .  A
C447        C448   1.394       .  A
C447        H452   1.083       .  S
C448        C449   1.398       .  A
C449        C450   1.401       .  A
C449        H453   1.084       .  S
C450        C451   1.415       .  A
C451        H454   1.084       .  S
O455       Zr467   2.476       .  S
O455        C457   1.292       .  A
O456      Zr2809   2.403   1_455  S
O456        C457   1.283       .  A
C457        C681   1.491       .  S
O458       Zr470   2.430       .  S
O458        C460   1.283       .  A
O459      Zr2038   2.430   1_455  S
O459        C460   1.287       .  A
C460        C569   1.468       .  S
O461       Zr470   2.446       .  S
O461        C463   1.286       .  A
O462      Zr2037   2.430   1_455  S
O462        C463   1.287       .  A
C463        C694   1.480       .  S
O464       Zr467   2.485       .  S
O464        C466   1.296       .  A
O465      Zr2810   2.383   1_455  S
O465        C466   1.275       .  A
C466        C534   1.506       .  S
Zr467       O468   2.434       .  S
Zr467       O469   2.435       .  S
Zr467      O1245   2.390       .  S
Zr467      O1246   2.374       .  S
Zr467      O2041   2.372   1_455  S
Zr467      O2043   2.374   1_455  S
O468       H1283   0.990       .  S
O469        H510   0.990       .  S
O469        H514   0.990       .  S
Zr470       O471   2.435       .  S
Zr470       O472   2.435       .  S
Zr470       O474   2.384       .  S
Zr470       O473   2.374       .  S
Zr470      O2042   2.377   1_455  S
Zr470      O2044   2.384   1_455  S
O471        H512   0.990       .  S
O471        H515   0.990       .  S
O472        H505   0.990       .  S
O473      Zr1239   2.390   1_545  S
O473      Zr2037   2.369   1_455  S
O474      Zr1239   2.374   1_545  S
O474      Zr2038   2.373   1_455  S
O474        H501   0.965       .  S
O475       Zr487   2.466       .  S
O475        C477   1.291       .  A
O476      Zr1266   2.393       .  S
O476        C477   1.283       .  A
C477        C521   1.490       .  S
O478       Zr490   2.435       .  S
O478        C480   1.285       .  A
O479       Zr493   2.417       .  S
O479        C480   1.286       .  A
C480        C662   1.465       .  S
O481       Zr490   2.447       .  S
O481        C483   1.287       .  A
O482       Zr494   2.407       .  S
O482        C483   1.282       .  A
C483        C553   1.467       .  S
O484       Zr487   2.486       .  S
O484        C486   1.295       .  A
O485      Zr1265   2.392       .  S
O485        C486   1.278       .  A
C486        C646   1.500       .  S
Zr487       O488   2.435       .  S
Zr487       O489   2.433       .  S
Zr487       O499   2.372       .  S
Zr487       O497   2.379       .  S
Zr487      O1267   2.385       .  S
Zr487      O1268   2.374       .  S
O488        H508   0.990       .  S
O488        H513   0.990       .  S
O489        H509   0.990       .  S
Zr490       O491   2.434       .  S
Zr490       O492   2.434       .  S
Zr490       O496   2.378       .  S
Zr490       O495   2.369       .  S
Zr490       O500   2.377       .  S
Zr490       O498   2.379       .  S
O491        H507   0.990       .  S
O492        H506   0.990       .  S
O492        H516   0.990       .  S
Zr493      O2772   2.403   1_545  S
Zr493      O2006   2.430       .  S
Zr493      O1257   2.392   1_545  S
Zr493       O496   2.369       .  S
Zr493       O498   2.368       .  S
Zr493      O2017   2.369       .  S
Zr493      O1271   2.383   1_545  S
Zr494      O2003   2.430       .  S
Zr494      O2781   2.383   1_545  S
Zr494      O1248   2.393   1_545  S
Zr494       O495   2.375       .  S
Zr494       O500   2.367       .  S
Zr494      O2018   2.373       .  S
Zr494      O1269   2.378   1_545  S
O495      Zr1259   2.385   1_545  S
O495        H503   0.966       .  S
O496      Zr1259   2.374   1_545  S
O497      Zr2011   2.372       .  S
O497      Zr1266   2.378       .  S
O498      Zr2014   2.377       .  S
O498        H502   0.966       .  S
O499      Zr2011   2.374       .  S
O499      Zr1265   2.383       .  S
O499        H504   0.965       .  S
O500      Zr2014   2.384       .  S
H511       O1240   0.990       .  S
C517        C518   1.406       .  A
C517        C522   1.414       .  A
C517        H524   1.083       .  S
C518        C519   1.420       .  A
C519        C520   1.398       .  A
C519        C526   1.527       .  S
C520        C521   1.406       .  A
C520        H525   1.084       .  S
C521        C522   1.421       .  A
C522        C523   1.517       .  S
C523        F527   1.385       .  S
C523        F528   1.383       .  S
C523        F529   1.384       .  S
C526        F530   1.381       .  S
C526        F531   1.384       .  S
C526        F532   1.385       .  S
C533        C534   1.413       .  A
C533        C538   1.412       .  A
C533        H540   1.082       .  S
C534        C535   1.439       .  A
C535        C536   1.401       .  A
C535        C542   1.528       .  S
C536        C537   1.392       .  A
C536        H541   1.084       .  S
C537        C538   1.409       .  A
C538        C539   1.514       .  S
C539        F543   1.384       .  S
C539        F544   1.383       .  S
C539        F545   1.383       .  S
C542        F547   1.380   1_455  S
C542        F548   1.386       .  S
C542       F1318   1.383       .  S
F546       C1314   1.383   1_545  S
C549        C550   1.412       .  A
C549        C554   1.401       .  A
C549        H556   1.080       .  S
C550        C551   1.427       .  A
C551        C552   1.407       .  A
C551        C558   1.520       .  S
C552        C553   1.399       .  A
C552        H557   1.085       .  S
C553        C554   1.407       .  A
C554        C555   1.518       .  S
C555        F559   1.385       .  S
C555        F560   1.381       .  S
C555        F561   1.384       .  S
C558        F562   1.384       .  S
C558        F563   1.383       .  S
C558        F564   1.384       .  S
C565        C566   1.408       .  A
C565        C570   1.394       .  A
C565        H572   1.079       .  S
C566        C567   1.426       .  A
C567        C568   1.408       .  A
C567        C574   1.518       .  S
C568        C569   1.400       .  A
C568        H573   1.085       .  S
C569        C570   1.409       .  A
C570        C571   1.515       .  S
C571        F575   1.385       .  S
C571        F576   1.372       .  S
C571        F577   1.383       .  S
C574        F578   1.383       .  S
C574        F579   1.383       .  S
C574        F580   1.384       .  S
C581        C582   1.409       .  A
C581        C586   1.403       .  A
C581        H588   1.083       .  S
C582        C583   1.423       .  A
C583        C584   1.416       .  A
C583        C590   1.516       .  S
C584        C585   1.404       .  A
C584        H589   1.083       .  S
C585        C586   1.416       .  A
C586        C587   1.522       .  S
C587        F591   1.384       .  S
C587        F592   1.383       .  S
C587        F593   1.378       .  S
C590        F594   1.383       .  S
C590        F595   1.382       .  S
C590        F596   1.385       .  S
C597        C598   1.412       .  A
C597        C602   1.396       .  A
C597        H604   1.082       .  S
C598        C599   1.424       .  A
C599        C600   1.412       .  A
C599        C606   1.518       .  S
C600        C601   1.402       .  A
C600        H605   1.083       .  S
C601        C602   1.412       .  A
C602        C603   1.526       .  S
C603        F607   1.385       .  S
C603        F608   1.384       .  S
C603        F609   1.381       .  S
C606        F610   1.383       .  S
C606        F611   1.383       .  S
C606        F612   1.384       .  S
C613        C614   1.404       .  A
C613        C618   1.397       .  A
C613        H620   1.084       .  S
C614        C615   1.420       .  A
C615        C616   1.413       .  A
C615        C622   1.517       .  S
C616        C617   1.405       .  A
C616        H621   1.083       .  S
C617        C618   1.419       .  A
C618        C619   1.524       .  S
C619        F623   1.385       .  S
C619        F624   1.377       .  S
C619        F625   1.383       .  S
C622        F626   1.382       .  S
C622        F627   1.384       .  S
C622        F628   1.385       .  S
C629        C630   1.390       .  A
C629        C634   1.404       .  A
C629        H636   1.084       .  S
C630        C631   1.408       .  A
C631        C632   1.407       .  A
C631        C638   1.516       .  S
C632        C633   1.414       .  A
C632        H637   1.082       .  S
C633        C634   1.438       .  A
C634        C635   1.520       .  S
C635        F639   1.385       .  S
C635        F640   1.379       .  S
C635        F641   1.382       .  S
C638        F642   1.384       .  S
C638        F643   1.381       .  S
C638        F644   1.385       .  S
C645        C646   1.411       .  A
C645        C650   1.419       .  A
C645        H652   1.082       .  S
C646        C647   1.430       .  A
C647        C648   1.391       .  A
C647        C654   1.517       .  S
C648        C649   1.393       .  A
C648        H653   1.084       .  S
C649        C650   1.419       .  A
C650        C651   1.516       .  S
C651        F655   1.385       .  S
C651        F656   1.381       .  S
C651        F657   1.383       .  S
C654        F659   1.375       .  S
C654        F660   1.386       .  S
C654       F1430   1.383       .  S
F658       C1426   1.383       .  S
C661        C662   1.402       .  A
C661        C666   1.411       .  A
C661        H668   1.083       .  S
C662        C663   1.413       .  A
C663        C664   1.391       .  A
C663        C670   1.510       .  S
C664        C665   1.396       .  A
C664        H669   1.085       .  S
C665        C666   1.421       .  A
C666        C667   1.519       .  S
C667        F671   1.385       .  S
C667        F672   1.377       .  S
C667        F673   1.383       .  S
C670        F674   1.377       .  S
C670        F675   1.381       .  S
C670        F676   1.383       .  S
C677        C678   1.395       .  A
C677        C682   1.395       .  A
C677        H684   1.084       .  S
C678        C679   1.425       .  A
C679        C680   1.421       .  A
C679        C686   1.515       .  S
C680        C681   1.407       .  A
C680        H685   1.083       .  S
C681        C682   1.414       .  A
C682       C1455   1.505       .  S
C683       C1454   1.505   1_545  S
C683        F687   1.375       .  S
C683        F688   1.381       .  S
C683        F689   1.383       .  S
C686        F690   1.382       .  S
C686        F691   1.383       .  S
C686        F692   1.385       .  S
C693        C694   1.398       .  A
C693        C698   1.417       .  A
C693        H700   1.081       .  S
C694        C695   1.405       .  A
C695        C696   1.405       .  A
C695        C702   1.518       .  S
C696        C697   1.419       .  A
C696        H701   1.080       .  S
C697        C698   1.439       .  A
C698        C699   1.526       .  S
C699        F703   1.385       .  S
C699        F704   1.382       .  S
C699        F705   1.383       .  S
C702        F707   1.383       .  S
C702        F708   1.384       .  S
C702       F2250   1.383       .  S
F706       C2246   1.383       .  S
C709        C710   1.402       .  A
C709        C714   1.410       .  A
C709        H716   1.083       .  S
C710        C711   1.416       .  A
C711        C712   1.399       .  A
C711        C718   1.521       .  S
C712        C713   1.403       .  A
C712        H717   1.081       .  S
C713        C714   1.423       .  A
C714        C715   1.520       .  S
C715        F719   1.385       .  S
C715        F720   1.383       .  S
C715        F721   1.384       .  S
C718        F722   1.380       .  S
C718        F723   1.384       .  S
C718        F724   1.384       .  S
C725        C726   1.410       .  A
C725        C730   1.409       .  A
C725        H732   1.083       .  S
C726        C727   1.427       .  A
C727        C728   1.408       .  A
C727        C734   1.518       .  S
C728        C729   1.399       .  A
C728        H733   1.084       .  S
C729        C730   1.413       .  A
C730        C731   1.517       .  S
C731        F735   1.384       .  S
C731        F736   1.381       .  S
C731        F737   1.384       .  S
C734        F738   1.379       .  S
C734        F739   1.382       .  S
C734        F740   1.385       .  S
C741        C742   1.399       .  A
C741        C746   1.404       .  A
C741        H748   1.083       .  S
C742        C743   1.412       .  A
C743        C744   1.414       .  A
C743        C750   1.515       .  S
C744        C745   1.413       .  A
C744        H749   1.082       .  S
C745        C746   1.435       .  A
C746        C747   1.528       .  S
C747        F751   1.385       .  S
C747        F752   1.382       .  S
C747        F753   1.382       .  S
C750        F754   1.382       .  S
C750        F755   1.383       .  S
C750        F756   1.384       .  S
C757        C758   1.415       .  A
C757        C762   1.415       .  A
C757        H764   1.082       .  S
C758        C759   1.434       .  A
C759        C760   1.403       .  A
C759        C766   1.527       .  S
C760        C761   1.397       .  A
C760        H765   1.083       .  S
C761        C762   1.411       .  A
C762        C763   1.516       .  S
C763        F767   1.385       .  S
C763        F768   1.382       .  S
C763        F769   1.383       .  S
C766        F770   1.383       .  S
C766        F771   1.383       .  S
C766        F772   1.385       .  S
O773       Zr785   2.411       .  S
O773        C775   1.283       .  A
O774      Zr2355   2.487       .  S
O774        C775   1.298       .  A
C775        C839   1.491       .  S
O776       Zr788   2.403       .  S
O776        C778   1.279       .  A
O777       Zr812   2.491       .  S
O777        C778   1.300       .  A
C778        C962   1.478       .  S
O779       Zr788   2.396       .  S
O779        C781   1.280       .  A
O780      Zr2355   2.456       .  S
O780        C781   1.291       .  A
C781        C955   1.464       .  S
O782       Zr785   2.418       .  S
O782        C784   1.285       .  A
O783       Zr812   2.485       .  S
O783        C784   1.298       .  A
C784        C917   1.490       .  S
Zr785       O786   2.432       .  S
Zr785       O787   2.435       .  S
Zr785       O791   2.362       .  S
Zr785       O792   2.362       .  S
Zr785       O815   2.365       .  S
Zr785      O2361   2.368       .  S
O786        H829   0.990       .  S
O787        H828   0.989       .  S
O787        H832   0.990       .  S
Zr788       O789   2.437       .  S
Zr788       O790   2.435       .  S
Zr788       O792   2.360       .  S
Zr788       O791   2.362       .  S
Zr788      O2360   2.363       .  S
Zr788       O818   2.363       .  S
O789        H830   0.990       .  S
O789        H833   0.990       .  S
O790        H823   0.990       .  S
O791      Zr2355   2.387       .  S
O792       Zr812   2.393       .  S
O792        H819   0.965       .  S
O793       Zr805   2.413       .  S
O793        C795   1.283       .  A
O794      Zr2356   2.485   1_455  S
O794        C795   1.298       .  A
C795        C910   1.488       .  S
O796       Zr808   2.413       .  S
O796        C798   1.284       .  A
O797       Zr811   2.471   1_455  S
O797        C798   1.295       .  A
C798        C935   1.478       .  S
O799       Zr808   2.417       .  S
O799        C801   1.283       .  A
O800      Zr2356   2.480   1_455  S
O800        C801   1.298       .  A
C801        C946   1.478       .  S
O802       Zr805   2.423       .  S
O802        C804   1.286       .  A
O803       Zr811   2.462   1_455  S
O803        C804   1.293       .  A
C804        C926   1.483       .  S
Zr805       O806   2.438       .  S
Zr805       O807   2.435       .  S
Zr805       O813   2.366       .  S
Zr805       O814   2.360       .  S
Zr805       O817   2.367   1_455  S
Zr805      O2359   2.373   1_455  S
O806        H826   0.990       .  S
O806        H831   0.990       .  S
O807        H827   0.990       .  S
Zr808       O809   2.434       .  S
Zr808       O810   2.436       .  S
Zr808       O814   2.364       .  S
Zr808       O813   2.362       .  S
Zr808      O2362   2.368   1_455  S
Zr808       O816   2.366   1_455  S
O809        H825   0.990       .  S
O810        H824   0.990       .  S
O810        H834   0.990       .  S
Zr811      O2318   2.487       .  S
Zr811      O2324   2.456       .  S
Zr811      O2335   2.387       .  S
Zr811       O814   2.393   1_655  S
Zr811       O816   2.403       .  S
Zr811       O817   2.401       .  S
Zr812      O2338   2.485       .  S
Zr812      O2344   2.480       .  S
Zr812      O2357   2.402       .  S
Zr812       O815   2.407       .  S
Zr812       O818   2.399       .  S
O813      Zr2356   2.402   1_455  S
O813        H821   0.966       .  S
O815      Zr2349   2.373       .  S
O816      Zr2332   2.363       .  S
O816        H820   0.966       .  S
O817      Zr2329   2.368       .  S
O817        H822   0.966       .  S
O818      Zr2352   2.368       .  S
C835       C1533   1.487       .  S
C835        C836   1.397       .  A
C835        C840   1.402       .  A
C836        C837   1.400       .  A
C836        H841   1.085       .  S
C837        C852   1.486       .  S
C837        C838   1.417       .  A
C838        C839   1.415       .  A
C838        H842   1.082       .  S
C839        C840   1.415       .  A
C840        H843   1.084       .  S
O844       Zr856   2.450       .  S
O844        C846   1.290       .  A
O845        C846   1.284       .  A
C846        C953   1.471       .  S
O847       Zr859   2.456       .  S
O847        C849   1.293       .  A
O848        C849   1.283       .  A
C849        C928   1.481       .  S
O850       Zr859   2.466       .  S
O850        C852   1.295       .  A
O851        C852   1.283       .  A
O853       Zr856   2.465       .  S
O853        C855   1.292       .  A
O854        C855   1.286       .  A
C855        C937   1.484       .  S
Zr856       O857   2.433       .  S
Zr856       O858   2.436       .  S
Zr856       O862   2.382       .  S
Zr856       O863   2.373       .  S
Zr856       O886   2.377       .  S
O857        H900   0.990       .  S
O858        H899   0.990       .  S
O858        H903   0.990       .  S
Zr859       O860   2.435       .  S
Zr859       O861   2.435       .  S
Zr859       O863   2.373       .  S
Zr859       O862   2.368       .  S
O860        H901   0.990       .  S
O860        H904   0.990       .  S
O861        H894   0.990       .  S
O863        H890   0.966       .  S
O864       Zr876   2.486       .  S
O864        C866   1.296       .  A
O865       Zr883   2.417   1_565  S
O865        C866   1.284       .  A
C866        C944   1.485       .  S
O867       Zr879   2.453       .  S
O867        C869   1.292       .  A
O868       Zr882   2.433       .  S
O868        C869   1.286       .  A
C869        C919   1.488       .  S
O870       Zr879   2.455       .  S
O870        C872   1.292       .  A
O871       Zr883   2.421   1_565  S
O871        C872   1.283       .  A
C872        C908   1.482       .  S
O873       Zr876   2.482       .  S
O873        C875   1.296       .  A
O874       Zr882   2.399       .  S
O874        C875   1.281       .  A
C875        C964   1.475       .  S
Zr876       O877   2.435       .  S
Zr876       O878   2.435       .  S
Zr876       O884   2.381       .  S
Zr876       O885   2.381       .  S
Zr876       O888   2.380   1_565  S
O877        H897   0.990       .  S
O877        H902   0.990       .  S
O878        H898   0.990       .  S
Zr879       O880   2.434       .  S
Zr879       O881   2.436       .  S
Zr879       O885   2.371       .  S
Zr879       O884   2.369       .  S
Zr879       O889   2.369       .  S
Zr879       O887   2.370       .  S
O880        H896   0.990       .  S
O881        H895   0.990       .  S
O881        H905   0.990       .  S
Zr882       O885   2.383       .  S
Zr882       O887   2.380       .  S
Zr882       O888   2.395   1_565  S
Zr883       O884   2.389   1_545  S
Zr883       O889   2.385   1_545  S
O884        H892   0.966       .  S
O887        H891   0.966       .  S
C906       C1514   1.488       .  S
C906        C907   1.396       .  A
C906        C911   1.402       .  A
C907        C908   1.401       .  A
C907        H912   1.085       .  S
C908        C909   1.414       .  A
C909        C910   1.413       .  A
C909        H913   1.084       .  S
C910        C911   1.416       .  A
C911        H914   1.084       .  S
C915       C1498   1.502       .  S
C915        C916   1.405       .  A
C915        C920   1.401       .  A
C916        C917   1.413       .  A
C916        H921   1.079       .  S
C917        C918   1.414       .  A
C918        C919   1.416       .  A
C918        H922   1.083       .  S
C919        C920   1.404       .  A
C920        H923   1.084       .  S
C924       C1482   1.477       .  S
C924        C925   1.398       .  A
C924        C929   1.393       .  A
C925        C926   1.407       .  A
C925        H930   1.084       .  S
C926        C927   1.413       .  A
C927        C928   1.416       .  A
C927        H931   1.083       .  S
C928        C929   1.401       .  A
C929        H932   1.085       .  S
C933       C1469   1.533       .  S
C933        C934   1.421       .  A
C933        C938   1.417       .  A
C934        C935   1.400       .  A
C934        H939   1.080       .  S
C935        C936   1.397       .  A
C936        C937   1.408       .  A
C936        H940   1.083       .  S
C937        C938   1.410       .  A
C938        H941   1.067       .  S
C942       C1450   1.494       .  S
C942        C943   1.413       .  A
C942        C947   1.406       .  A
C943        C944   1.402       .  A
C943        H948   1.084       .  S
C944        C945   1.411       .  A
C945        C946   1.408       .  A
C945        H949   1.084       .  S
C946        C947   1.406       .  A
C947        H950   1.081       .  S
C951       C1437   1.479       .  S
C951        C952   1.404       .  A
C951        C956   1.399       .  A
C952        C953   1.402       .  A
C952        H957   1.084       .  S
C953        C954   1.408       .  A
C954        C955   1.402       .  A
C954        H958   1.083       .  S
C955        C956   1.399       .  A
C956        H959   1.083       .  S
C960       C1421   1.487       .  S
C960        C961   1.408       .  A
C960        C965   1.404       .  A
C961        C962   1.400       .  A
C961        H966   1.085       .  S
C962        C963   1.405       .  A
C963        C964   1.414       .  A
C963        H967   1.084       .  S
C964        C965   1.404       .  A
C965        H968   1.082       .  S
O969       Zr981   2.449       .  S
O969        C971   1.288       .  A
O970      Zr1007   2.420       .  S
O970        C971   1.286       .  A
C971       C1501   1.479       .  S
O972       Zr984   2.451   1_554  S
O972        C974   1.288       .  A
O973      Zr1008   2.410       .  S
O973        C974   1.284       .  A
C974       C1402   1.468       .  S
O975       Zr984   2.470       .  S
O975        C977   1.293       .  A
O976      Zr1007   2.400       .  S
O976        C977   1.278       .  A
C977       C1530   1.506       .  S
O978       Zr981   2.465   1_554  S
O978        C980   1.290       .  A
O979      Zr1008   2.380       .  S
O979        C980   1.280       .  A
C980       C1370   1.495       .  S
Zr981       O982   2.434       .  S
Zr981       O983   2.433       .  S
Zr981       O987   2.379       .  S
Zr981       O988   2.368   1_556  S
Zr981      O1011   2.370   1_556  S
Zr981      O1013   2.380       .  S
O982       H1025   0.990       .  S
O983       H1024   0.990       .  S
O983       H1028   0.990       .  S
Zr984       O985   2.435       .  S
Zr984       O986   2.435       .  S
Zr984       O988   2.380   1_556  S
Zr984       O987   2.370       .  S
Zr984      O1012   2.375       .  S
Zr984      O1014   2.386   1_556  S
O985       H1026   0.990   1_556  S
O985       H1029   0.990       .  S
O986       H1019   0.990       .  S
O987      Zr1007   2.367       .  S
O988      Zr1008   2.373       .  S
O988       H1015   0.966       .  S
O989      Zr1001   2.478   1_554  S
O989        C991   1.293       .  A
O990      Zr1008   2.399       .  S
O990        C991   1.283       .  A
C991       C1354   1.498       .  S
O992      Zr1004   2.434       .  S
O992        C994   1.285       .  A
O993      Zr1007   2.417       .  S
O993        C994   1.287       .  A
C994       C1485   1.484       .  S
O995      Zr1004   2.463   1_554  S
O995        C997   1.289       .  A
O996      Zr1008   2.389       .  S
O996        C997   1.281       .  A
C997       C1386   1.486       .  S
O998      Zr1001   2.477       .  S
O998       C1000   1.295       .  A
O999      Zr1007   2.394       .  S
O999       C1000   1.277       .  A
C1000      C1517   1.504       .  S
Zr1001     O1002   2.435       .  S
Zr1001     O1003   2.433       .  S
Zr1001     O1009   2.379   1_556  S
Zr1001     O1010   2.375       .  S
Zr1001     O1013   2.380       .  S
Zr1001     O1011   2.379   1_556  S
O1002      H1022   0.990   1_556  S
O1002      H1027   0.990       .  S
O1003      H1023   0.990   1_556  S
Zr1004     O1005   2.434       .  S
Zr1004     O1006   2.434       .  S
Zr1004     O1010   2.381       .  S
Zr1004     O1009   2.370   1_556  S
Zr1004     O1014   2.373   1_556  S
Zr1004     O1012   2.385       .  S
O1005      H1021   0.990       .  S
O1006      H1020   0.990   1_556  S
O1006      H1030   0.990       .  S
Zr1007     O1010   2.373       .  S
Zr1007     O1012   2.375       .  S
Zr1007     O1013   2.379       .  S
Zr1008     O1009   2.369       .  S
Zr1008     O1011   2.369       .  S
Zr1008     O1014   2.369       .  S
O1009      H1017   0.966       .  S
O1012      H1016   0.966       .  S
O1013      H1018   0.966       .  S
C1031      C1357   1.486       .  S
C1031      C1032   1.401       .  A
C1031      C1036   1.399       .  A
C1032      C1033   1.411       .  A
C1032      H1037   1.084       .  S
C1033      C1060   1.470       .  S
C1033      C1034   1.399       .  A
C1034      C1035   1.403       .  A
C1034      H1038   1.084       .  S
C1035      C1122   1.456       .  S
C1035      C1036   1.402       .  A
C1036      H1039   1.084       .  S
C1040      C1405   1.512       .  S
C1040      C1041   1.415       .  A
C1040      C1045   1.405       .  A
C1041      C1042   1.402       .  A
C1041      H1046   1.082       .  S
C1042      C1142   1.467       .  S
C1042      C1043   1.402       .  A
C1043      C1044   1.399       .  A
C1043      H1047   1.082       .  S
C1044      C1080   1.469       .  S
C1044      C1045   1.402       .  A
C1045      H1048   1.071       .  S
C1049      C1373   1.473       .  S
C1049      C1050   1.397       .  A
C1049      C1054   1.394       .  A
C1050      C1051   1.408       .  A
C1050      H1055   1.085       .  S
C1051      C1069   1.462       .  S
C1051      C1052   1.400       .  A
C1052      C1053   1.399       .  A
C1052      H1056   1.084       .  S
C1053      C1131   1.451       .  S
C1053      C1054   1.396       .  A
C1054      H1057   1.085       .  S
O1058     Zr1070   2.383       .  S
O1058      C1060   1.277       .  A
O1059      C1060   1.295       .  A
O1061     Zr1073   2.391       .  S
O1061      C1063   1.276       .  A
O1062      C1063   1.291       .  A
C1063      C1220   1.450       .  S
O1064     Zr1073   2.395       .  S
O1064      C1066   1.277       .  A
O1065      C1066   1.292       .  A
C1066      C1211   1.458       .  S
O1067     Zr1070   2.392       .  S
O1067      C1069   1.279       .  A
O1068      C1069   1.290       .  A
Zr1070     O1071   2.434       .  S
Zr1070     O1072   2.438       .  S
Zr1070     O1076   2.362       .  S
Zr1070     O1077   2.355       .  S
O1071      H1114   0.990       .  S
O1072      H1113   0.990       .  S
O1072      H1117   0.990       .  S
Zr1073     O1074   2.438       .  S
Zr1073     O1075   2.436       .  S
Zr1073     O1077   2.370       .  S
Zr1073     O1076   2.362       .  S
O1074      H1115   0.990       .  S
O1074      H1118   0.990       .  S
O1075      H1108   0.990       .  S
O1077      H1104   0.966       .  S
O1078     Zr1090   2.418       .  S
O1078      C1080   1.284       .  A
O1079     Zr1097   2.449       .  S
O1079      C1080   1.290       .  A
O1081     Zr1093   2.397       .  S
O1081      C1083   1.278       .  A
O1082     Zr1096   2.451       .  S
O1082      C1083   1.293       .  A
C1083      C1193   1.459       .  S
O1084     Zr1093   2.418       .  S
O1084      C1086   1.282       .  A
O1085     Zr1097   2.438       .  S
O1085      C1086   1.288       .  A
C1086      C1202   1.459       .  S
O1087     Zr1090   2.425       .  S
O1087      C1089   1.286       .  A
O1088     Zr1096   2.440       .  S
O1088      C1089   1.289       .  A
C1089      C1184   1.470       .  S
Zr1090     O1091   2.436       .  S
Zr1090     O1092   2.430       .  S
Zr1090     O1098   2.362       .  S
Zr1090     O1099   2.355       .  S
Zr1090     O1102   2.351       .  S
Zr1090     O1100   2.359       .  S
O1091      H1111   0.990       .  S
O1091      H1116   0.990       .  S
O1092      H1112   0.989       .  S
Zr1093     O1094   2.434       .  S
Zr1093     O1095   2.434       .  S
Zr1093     O1099   2.370       .  S
Zr1093     O1098   2.361       .  S
Zr1093     O1103   2.359       .  S
Zr1093     O1101   2.372       .  S
O1094      H1110   0.990       .  S
O1095      H1109   0.990       .  S
O1095      H1119   0.990       .  S
Zr1096     O1099   2.388       .  S
Zr1096     O1101   2.401       .  S
Zr1096     O1102   2.385       .  S
Zr1097     O1098   2.393       .  S
Zr1097     O1100   2.381       .  S
Zr1097     O1103   2.395       .  S
O1098      H1106   0.965       .  S
O1101      H1105   0.966       .  S
O1102      H1107   0.966       .  S
O1120     Zr1132   2.402   1_455  S
O1120      C1122   1.279       .  A
O1121     Zr1158   2.445       .  S
O1121      C1122   1.291       .  A
O1123     Zr2679   2.385       .  S
O1123      C1125   1.277       .  A
O1124     Zr1159   2.464       .  S
O1124      C1125   1.294       .  A
C1125      C1222   1.470       .  S
O1126     Zr1135   2.383   1_455  S
O1126      C1128   1.277       .  A
O1127     Zr1158   2.462       .  S
O1127      C1128   1.293       .  A
C1128      C1213   1.468       .  S
O1129     Zr2676   2.396       .  S
O1129      C1131   1.278       .  A
O1130     Zr1159   2.443       .  S
O1130      C1131   1.291       .  A
Zr1132     O2673   2.396       .  S
Zr1132     O1133   2.433       .  S
Zr1132     O2678   2.436       .  S
Zr1132     O1138   2.365   1_655  S
Zr1132     O2683   2.369       .  S
Zr1132     O2706   2.367       .  S
Zr1132     O1164   2.364   1_655  S
O1133      H1176   0.990       .  S
O1134     Zr2676   2.436       .  S
O1134      H2719   0.990       .  S
O1134      H2723   0.990       .  S
Zr1135     O2667   2.385       .  S
Zr1135     O1136   2.437       .  S
Zr1135     O2681   2.436       .  S
Zr1135     O2683   2.358       .  S
Zr1135     O1138   2.360   1_655  S
Zr1135     O1163   2.354   1_655  S
Zr1135     O2709   2.358       .  S
O1136      H2721   0.990       .  S
O1136      H1180   0.990       .  S
O1137     Zr2679   2.436       .  S
O1137      H2714   0.990       .  S
O1138     Zr1158   2.379       .  S
O1139     Zr2676   2.369       .  S
O1139     Zr2679   2.358       .  S
O1139     Zr1159   2.387       .  S
O1139      H1166   0.966       .  S
O1140     Zr1152   2.430       .  S
O1140      C1142   1.284       .  A
O1141     Zr1159   2.449       .  S
O1141      C1142   1.291       .  A
O1143     Zr2699   2.398   1_455  S
O1143      C1145   1.280       .  A
O1144     Zr1158   2.436       .  S
O1144      C1145   1.289       .  A
C1145      C1195   1.457       .  S
O1146     Zr1155   2.406       .  S
O1146      C1148   1.282       .  A
O1147     Zr1159   2.448       .  S
O1147      C1148   1.290       .  A
C1148      C1204   1.464       .  S
O1149     Zr2696   2.432   1_455  S
O1149      C1151   1.285       .  A
O1150     Zr1158   2.439       .  S
O1150      C1151   1.290       .  A
C1151      C1186   1.467       .  S
Zr1152     O2693   2.432       .  S
Zr1152     O2697   2.437       .  S
Zr1152     O1154   2.435       .  S
Zr1152     O1160   2.372       .  S
Zr1152     O2705   2.367       .  S
Zr1152     O2708   2.368       .  S
Zr1152     O1162   2.370       .  S
O1153     Zr2696   2.437       .  S
O1153      H2717   0.990       .  S
O1153      H2722   0.990       .  S
O1154      H1174   0.990       .  S
Zr1155     O2687   2.398       .  S
Zr1155     O1156   2.433       .  S
Zr1155     O2701   2.436       .  S
Zr1155     O2705   2.361       .  S
Zr1155     O1160   2.354       .  S
Zr1155     O1165   2.358       .  S
Zr1155     O2707   2.358       .  S
O1156      H2716   0.990       .  S
O1157     Zr2699   2.436       .  S
O1157      H2715   0.990       .  S
O1157      H2725   0.990       .  S
Zr1158     O1161   2.385       .  S
Zr1158     O1163   2.386       .  S
Zr1158     O1164   2.395       .  S
Zr1159     O1160   2.395       .  S
Zr1159     O1162   2.398       .  S
Zr1159     O1165   2.384       .  S
O1160      H1168   0.965       .  S
O1161     Zr2696   2.367   1_455  S
O1161     Zr2699   2.361   1_455  S
O1162     Zr2676   2.367       .  S
O1163     Zr2699   2.358   1_455  S
O1163      H1167   0.966       .  S
O1164     Zr2696   2.368   1_455  S
O1164      H1169   0.966       .  S
O1165     Zr2679   2.358       .  S
H1170      O2681   0.990   1_455  S
H1171      O2701   0.990       .  S
H1172      O2700   0.990       .  S
H1173      O2697   0.990       .  S
H1175      O2678   0.990   1_455  S
H1177      O2680   0.990       .  S
H1178      O2697   0.990       .  S
H1179      O2678   0.990       .  S
H1181      O2701   0.990       .  S
C1182      C1389   1.482       .  S
C1182      C1183   1.397       .  A
C1182      C1187   1.402       .  A
C1183      C1184   1.401       .  A
C1183      H1188   1.084       .  S
C1184      C1185   1.403       .  A
C1185      C1186   1.407       .  A
C1185      H1189   1.082       .  S
C1186      C1187   1.404       .  A
C1187      H1190   1.084       .  S
C1191      C1338   1.496       .  S
C1191      C1192   1.406       .  A
C1191      C1196   1.401       .  A
C1192      C1193   1.400       .  A
C1192      H1197   1.083       .  S
C1193      C1194   1.397       .  A
C1194      C1195   1.397       .  A
C1194      H1198   1.082       .  S
C1195      C1196   1.402       .  A
C1196      H1199   1.081       .  S
C1200      C1322   1.499       .  S
C1200      C1201   1.406       .  A
C1200      C1205   1.409       .  A
C1201      C1202   1.398       .  A
C1201      H1206   1.080       .  S
C1202      C1203   1.401       .  A
C1203      C1204   1.399       .  A
C1203      H1207   1.082       .  S
C1204      C1205   1.403       .  A
C1205      H1208   1.083       .  S
C1209      C1309   1.478       .  S
C1209      C1210   1.399       .  A
C1209      C1214   1.399       .  A
C1210      C1211   1.400       .  A
C1210      H1215   1.085       .  S
C1211      C1212   1.403       .  A
C1212      C1213   1.401       .  A
C1212      H1216   1.084       .  S
C1213      C1214   1.410       .  A
C1214      H1217   1.085       .  S
C1218      C1290   1.484       .  S
C1218      C1219   1.393       .  A
C1218      C1223   1.403       .  A
C1219      C1220   1.394       .  A
C1219      H1224   1.083       .  S
C1220      C1221   1.398       .  A
C1221      C1222   1.401       .  A
C1221      H1225   1.084       .  S
C1222      C1223   1.415       .  A
C1223      H1226   1.084       .  S
O1227     Zr1239   2.476       .  S
O1227      C1229   1.292       .  A
O1228     Zr2037   2.403   1_465  S
O1228      C1229   1.283       .  A
C1229      C1453   1.491       .  S
O1230     Zr1242   2.430       .  S
O1230      C1232   1.283       .  A
O1231     Zr2810   2.430   1_455  S
O1231      C1232   1.287       .  A
C1232      C1341   1.468       .  S
O1233     Zr1242   2.446       .  S
O1233      C1235   1.286       .  A
O1234     Zr2809   2.430   1_455  S
O1234      C1235   1.287       .  A
C1235      C1466   1.480       .  S
O1236     Zr1239   2.485       .  S
O1236      C1238   1.296       .  A
O1237     Zr2038   2.383   1_465  S
O1237      C1238   1.275       .  A
C1238      C1306   1.506       .  S
Zr1239     O1240   2.434       .  S
Zr1239     O1241   2.435       .  S
Zr1239     O2813   2.372   1_455  S
Zr1239     O2815   2.374   1_455  S
O1241      H1282   0.990       .  S
O1241      H1286   0.990       .  S
Zr1242     O1243   2.435       .  S
Zr1242     O1244   2.435       .  S
Zr1242     O1246   2.384       .  S
Zr1242     O1245   2.374       .  S
Zr1242     O2814   2.377   1_455  S
Zr1242     O2816   2.384   1_455  S
O1243      H1284   0.990       .  S
O1243      H1287   0.990       .  S
O1244      H1277   0.990       .  S
O1245     Zr2809   2.369   1_455  S
O1246     Zr2810   2.373   1_455  S
O1246      H1273   0.965       .  S
O1247     Zr1259   2.466       .  S
O1247      C1249   1.291       .  A
O1248      C1249   1.283       .  A
C1249      C1293   1.490       .  S
O1250     Zr1262   2.435       .  S
O1250      C1252   1.285       .  A
O1251     Zr1265   2.417       .  S
O1251      C1252   1.286       .  A
C1252      C1434   1.465       .  S
O1253     Zr1262   2.447       .  S
O1253      C1255   1.287       .  A
O1254     Zr1266   2.407       .  S
O1254      C1255   1.282       .  A
C1255      C1325   1.467       .  S
O1256     Zr1259   2.486       .  S
O1256      C1258   1.295       .  A
O1257      C1258   1.278       .  A
C1258      C1418   1.500       .  S
Zr1259     O1260   2.435       .  S
Zr1259     O1261   2.433       .  S
Zr1259     O1271   2.372       .  S
Zr1259     O1269   2.379       .  S
O1260      H1280   0.990       .  S
O1260      H1285   0.990       .  S
O1261      H1281   0.990       .  S
Zr1262     O1263   2.434       .  S
Zr1262     O1264   2.434       .  S
Zr1262     O1268   2.378       .  S
Zr1262     O1267   2.369       .  S
Zr1262     O1272   2.377       .  S
Zr1262     O1270   2.379       .  S
O1263      H1279   0.990       .  S
O1264      H1278   0.990       .  S
O1264      H1288   0.990       .  S
Zr1265     O2000   2.403       .  S
Zr1265     O2778   2.430       .  S
Zr1265     O2789   2.369       .  S
Zr1265     O1268   2.369       .  S
Zr1265     O1270   2.368       .  S
Zr1266     O2775   2.430       .  S
Zr1266     O2009   2.383       .  S
Zr1266     O2790   2.373       .  S
Zr1266     O1267   2.375       .  S
Zr1266     O1272   2.367       .  S
O1267      H1275   0.966       .  S
O1269     Zr2783   2.372       .  S
O1270     Zr2786   2.377       .  S
O1270      H1274   0.966       .  S
O1271     Zr2783   2.374       .  S
O1271      H1276   0.965       .  S
O1272     Zr2786   2.384       .  S
C1289      C1290   1.406       .  A
C1289      C1294   1.414       .  A
C1289      H1296   1.083       .  S
C1290      C1291   1.420       .  A
C1291      C1292   1.398       .  A
C1291      C1298   1.527       .  S
C1292      C1293   1.406       .  A
C1292      H1297   1.084       .  S
C1293      C1294   1.421       .  A
C1294      C1295   1.517       .  S
C1295      F1299   1.385       .  S
C1295      F1300   1.383       .  S
C1295      F1301   1.384       .  S
C1298      F1302   1.381       .  S
C1298      F1303   1.384       .  S
C1298      F1304   1.385   1_565  S
C1305      C1306   1.413       .  A
C1305      C1310   1.412       .  A
C1305      H1312   1.082       .  S
C1306      C1307   1.439       .  A
C1307      C1308   1.401       .  A
C1307      C1314   1.528       .  S
C1308      C1309   1.392       .  A
C1308      H1313   1.084       .  S
C1309      C1310   1.409       .  A
C1310      C1311   1.514       .  S
C1311      F1315   1.384       .  S
C1311      F1316   1.383       .  S
C1311      F1317   1.383       .  S
C1314      F1319   1.380   1_455  S
C1314      F1320   1.386       .  S
C1321      C1322   1.412       .  A
C1321      C1326   1.401       .  A
C1321      H1328   1.080       .  S
C1322      C1323   1.427       .  A
C1323      C1324   1.407       .  A
C1323      C1330   1.520       .  S
C1324      C1325   1.399       .  A
C1324      H1329   1.085       .  S
C1325      C1326   1.407       .  A
C1326      C1327   1.518       .  S
C1327      F1331   1.385       .  S
C1327      F1332   1.381       .  S
C1327      F1333   1.384       .  S
C1330      F1334   1.384       .  S
C1330      F1335   1.383       .  S
C1330      F1336   1.384       .  S
C1337      C1338   1.408       .  A
C1337      C1342   1.394       .  A
C1337      H1344   1.079       .  S
C1338      C1339   1.426       .  A
C1339      C1340   1.408       .  A
C1339      C1346   1.518       .  S
C1340      C1341   1.400       .  A
C1340      H1345   1.085       .  S
C1341      C1342   1.409       .  A
C1342      C1343   1.515       .  S
C1343      F1347   1.385       .  S
C1343      F1348   1.372       .  S
C1343      F1349   1.383       .  S
C1346      F1350   1.383       .  S
C1346      F1351   1.383       .  S
C1346      F1352   1.384       .  S
C1353      C1354   1.409       .  A
C1353      C1358   1.403       .  A
C1353      H1360   1.083       .  S
C1354      C1355   1.423       .  A
C1355      C1356   1.416       .  A
C1355      C1362   1.516       .  S
C1356      C1357   1.404       .  A
C1356      H1361   1.083       .  S
C1357      C1358   1.416       .  A
C1358      C1359   1.522       .  S
C1359      F1363   1.384       .  S
C1359      F1364   1.383       .  S
C1359      F1365   1.378       .  S
C1362      F1366   1.383       .  S
C1362      F1367   1.382       .  S
C1362      F1368   1.385       .  S
C1369      C1370   1.412       .  A
C1369      C1374   1.396       .  A
C1369      H1376   1.082       .  S
C1370      C1371   1.424       .  A
C1371      C1372   1.412       .  A
C1371      C1378   1.518       .  S
C1372      C1373   1.402       .  A
C1372      H1377   1.083       .  S
C1373      C1374   1.412       .  A
C1374      C1375   1.526       .  S
C1375      F1379   1.385       .  S
C1375      F1380   1.384       .  S
C1375      F1381   1.381       .  S
C1378      F1382   1.383       .  S
C1378      F1383   1.383       .  S
C1378      F1384   1.384       .  S
C1385      C1386   1.404       .  A
C1385      C1390   1.397       .  A
C1385      H1392   1.084       .  S
C1386      C1387   1.420       .  A
C1387      C1388   1.413       .  A
C1387      C1394   1.517       .  S
C1388      C1389   1.405       .  A
C1388      H1393   1.083       .  S
C1389      C1390   1.419       .  A
C1390      C1391   1.524       .  S
C1391      F1395   1.385       .  S
C1391      F1396   1.377       .  S
C1391      F1397   1.383       .  S
C1394      F1398   1.382       .  S
C1394      F1399   1.384       .  S
C1394      F1400   1.385       .  S
C1401      C1402   1.390       .  A
C1401      C1406   1.404       .  A
C1401      H1408   1.084       .  S
C1402      C1403   1.408       .  A
C1403      C1404   1.407       .  A
C1403      C1410   1.516       .  S
C1404      C1405   1.414       .  A
C1404      H1409   1.082       .  S
C1405      C1406   1.438       .  A
C1406      C1407   1.520       .  S
C1407      F1411   1.385       .  S
C1407      F1412   1.379       .  S
C1407      F1413   1.382       .  S
C1410      F1414   1.384       .  S
C1410      F1415   1.381       .  S
C1410      F1416   1.385       .  S
C1417      C1418   1.411       .  A
C1417      C1422   1.419       .  A
C1417      H1424   1.082       .  S
C1418      C1419   1.430       .  A
C1419      C1420   1.391       .  A
C1419      C1426   1.517       .  S
C1420      C1421   1.393       .  A
C1420      H1425   1.084       .  S
C1421      C1422   1.419       .  A
C1422      C1423   1.516       .  S
C1423      F1427   1.385       .  S
C1423      F1428   1.381       .  S
C1423      F1429   1.383       .  S
C1426      F1431   1.375       .  S
C1426      F1432   1.386       .  S
C1433      C1434   1.402       .  A
C1433      C1438   1.411       .  A
C1433      H1440   1.083       .  S
C1434      C1435   1.413       .  A
C1435      C1436   1.391       .  A
C1435      C1442   1.510       .  S
C1436      C1437   1.396       .  A
C1436      H1441   1.085       .  S
C1437      C1438   1.421       .  A
C1438      C1439   1.519       .  S
C1439      F1443   1.385       .  S
C1439      F1444   1.377       .  S
C1439      F1445   1.383       .  S
C1442      F1446   1.377       .  S
C1442      F1447   1.381       .  S
C1442      F1448   1.383       .  S
C1449      C1450   1.395       .  A
C1449      C1454   1.395       .  A
C1449      H1456   1.084       .  S
C1450      C1451   1.425       .  A
C1451      C1452   1.421       .  A
C1451      C1458   1.515       .  S
C1452      C1453   1.407       .  A
C1452      H1457   1.083       .  S
C1453      C1454   1.414       .  A
C1455      F1459   1.375       .  S
C1455      F1460   1.381       .  S
C1455      F1461   1.383       .  S
C1458      F1462   1.382       .  S
C1458      F1463   1.383       .  S
C1458      F1464   1.385       .  S
C1465      C1466   1.398       .  A
C1465      C1470   1.417       .  A
C1465      H1472   1.081       .  S
C1466      C1467   1.405       .  A
C1467      C1468   1.405       .  A
C1467      C1474   1.518       .  S
C1468      C1469   1.419       .  A
C1468      H1473   1.080       .  S
C1469      C1470   1.439       .  A
C1470      C1471   1.526       .  S
C1471      F1475   1.385       .  S
C1471      F1476   1.382       .  S
C1471      F1477   1.383       .  S
C1474      F3022   1.383       .  S
C1474      F1479   1.383       .  S
C1474      F1480   1.384       .  S
F1478      C3018   1.383       .  S
C1481      C1482   1.402       .  A
C1481      C1486   1.410       .  A
C1481      H1488   1.083       .  S
C1482      C1483   1.416       .  A
C1483      C1484   1.399       .  A
C1483      C1490   1.521       .  S
C1484      C1485   1.403       .  A
C1484      H1489   1.081       .  S
C1485      C1486   1.423       .  A
C1486      C1487   1.520       .  S
C1487      F1491   1.385       .  S
C1487      F1492   1.383       .  S
C1487      F1493   1.384       .  S
C1490      F1494   1.380       .  S
C1490      F1495   1.384       .  S
C1490      F1496   1.384       .  S
C1497      C1498   1.410       .  A
C1497      C1502   1.409       .  A
C1497      H1504   1.083       .  S
C1498      C1499   1.427       .  A
C1499      C1500   1.408       .  A
C1499      C1506   1.518       .  S
C1500      C1501   1.399       .  A
C1500      H1505   1.084       .  S
C1501      C1502   1.413       .  A
C1502      C1503   1.517       .  S
C1503      F1507   1.384       .  S
C1503      F1508   1.381       .  S
C1503      F1509   1.384       .  S
C1506      F1510   1.379       .  S
C1506      F1511   1.382       .  S
C1506      F1512   1.385       .  S
C1513      C1514   1.399       .  A
C1513      C1518   1.404       .  A
C1513      H1520   1.083       .  S
C1514      C1515   1.412       .  A
C1515      C1516   1.414       .  A
C1515      C1522   1.515       .  S
C1516      C1517   1.413       .  A
C1516      H1521   1.082       .  S
C1517      C1518   1.435       .  A
C1518      C1519   1.528       .  S
C1519      F1523   1.385       .  S
C1519      F1524   1.382       .  S
C1519      F1525   1.382       .  S
C1522      F1526   1.382       .  S
C1522      F1527   1.383       .  S
C1522      F1528   1.384       .  S
C1529      C1530   1.415       .  A
C1529      C1534   1.415       .  A
C1529      H1536   1.082       .  S
C1530      C1531   1.434       .  A
C1531      C1532   1.403       .  A
C1531      C1538   1.527       .  S
C1532      C1533   1.397       .  A
C1532      H1537   1.083       .  S
C1533      C1534   1.411       .  A
C1534      C1535   1.516       .  S
C1535      F1539   1.385       .  S
C1535      F1540   1.382       .  S
C1535      F1541   1.383       .  S
C1538      F1542   1.383       .  S
C1538      F1543   1.383       .  S
C1538      F1544   1.385       .  S
O1545     Zr1557   2.411       .  S
O1545      C1547   1.283       .  A
O1546      C1547   1.298       .  A
C1547      C1611   1.491       .  S
O1548     Zr1560   2.403       .  S
O1548      C1550   1.279       .  A
O1549     Zr1584   2.491       .  S
O1549      C1550   1.300       .  A
C1550      C1734   1.478       .  S
O1551     Zr1560   2.396       .  S
O1551      C1553   1.280       .  A
O1552      C1553   1.291       .  A
C1553      C1727   1.464       .  S
O1554     Zr1557   2.418       .  S
O1554      C1556   1.285       .  A
O1555     Zr1584   2.485       .  S
O1555      C1556   1.298       .  A
C1556      C1689   1.490       .  S
Zr1557     O1558   2.432       .  S
Zr1557     O1559   2.435       .  S
Zr1557     O1563   2.362       .  S
Zr1557     O1564   2.362       .  S
Zr1557     O1587   2.365       .  S
O1558      H1601   0.990       .  S
O1559      H1600   0.989       .  S
O1559      H1604   0.990       .  S
Zr1560     O1561   2.437       .  S
Zr1560     O1562   2.435       .  S
Zr1560     O1564   2.360       .  S
Zr1560     O1563   2.362       .  S
Zr1560     O1590   2.363       .  S
O1561      H1602   0.990       .  S
O1561      H1605   0.990       .  S
O1562      H1595   0.990       .  S
O1564     Zr1584   2.393       .  S
O1564      H1591   0.965       .  S
O1565     Zr1577   2.413       .  S
O1565      C1567   1.283       .  A
O1566      C1567   1.298       .  A
C1567      C1682   1.488       .  S
O1568     Zr1580   2.413       .  S
O1568      C1570   1.284       .  A
O1569     Zr1583   2.471       .  S
O1569      C1570   1.295       .  A
C1570      C1707   1.478       .  S
O1571     Zr1580   2.417       .  S
O1571      C1573   1.283       .  A
O1572      C1573   1.298       .  A
C1573      C1718   1.478       .  S
O1574     Zr1577   2.423       .  S
O1574      C1576   1.286       .  A
O1575     Zr1583   2.462       .  S
O1575      C1576   1.293       .  A
C1576      C1698   1.483       .  S
Zr1577     O1578   2.438       .  S
Zr1577     O1579   2.435       .  S
Zr1577     O1585   2.366       .  S
Zr1577     O1586   2.360       .  S
Zr1577     O1589   2.367       .  S
O1578      H1598   0.990       .  S
O1578      H1603   0.990       .  S
O1579      H1599   0.990       .  S
Zr1580     O1581   2.434       .  S
Zr1580     O1582   2.436       .  S
Zr1580     O1586   2.364       .  S
Zr1580     O1585   2.362       .  S
Zr1580     O1588   2.366       .  S
O1581      H1597   0.990       .  S
O1582      H1596   0.990       .  S
O1582      H1606   0.990       .  S
Zr1583     O1586   2.393       .  S
Zr1583     O1588   2.403       .  S
Zr1583     O1589   2.401       .  S
Zr1584     O1587   2.407       .  S
Zr1584     O1590   2.399       .  S
O1585      H1593   0.966       .  S
O1588      H1592   0.966       .  S
O1589      H1594   0.966       .  S
C1607      C2305   1.487       .  S
C1607      C1608   1.397       .  A
C1607      C1612   1.402       .  A
C1608      C1609   1.400       .  A
C1608      H1613   1.085       .  S
C1609      C1624   1.486       .  S
C1609      C1610   1.417       .  A
C1610      C1611   1.415       .  A
C1610      H1614   1.082       .  S
C1611      C1612   1.415       .  A
C1612      H1615   1.084       .  S
O1616     Zr1628   2.450       .  S
O1616      C1618   1.290       .  A
O1617     Zr2426   2.413   1_545  S
O1617      C1618   1.284       .  A
C1618      C1725   1.471       .  S
O1619     Zr1631   2.456       .  S
O1619      C1621   1.293       .  A
O1620     Zr2427   2.417       .  S
O1620      C1621   1.283       .  A
C1621      C1700   1.481       .  S
O1622     Zr1631   2.466       .  S
O1622      C1624   1.295       .  A
O1623     Zr2426   2.421   1_545  S
O1623      C1624   1.283       .  A
O1625     Zr1628   2.465       .  S
O1625      C1627   1.292       .  A
O1626     Zr2427   2.421       .  S
O1626      C1627   1.286       .  A
C1627      C1709   1.484       .  S
Zr1628     O1629   2.433       .  S
Zr1628     O1630   2.436       .  S
Zr1628     O1634   2.382       .  S
Zr1628     O1635   2.373       .  S
Zr1628     O1658   2.377       .  S
Zr1628     O2432   2.379       .  S
O1629      H1672   0.990       .  S
O1630      H1671   0.990       .  S
O1630      H1675   0.990       .  S
Zr1631     O1632   2.435       .  S
Zr1631     O1633   2.435       .  S
Zr1631     O1635   2.373       .  S
Zr1631     O1634   2.368       .  S
Zr1631     O2431   2.368   1_545  S
Zr1631     O2433   2.372   1_545  S
O1632      H1673   0.990       .  S
O1632      H1676   0.990       .  S
O1633      H1666   0.990       .  S
O1634     Zr2426   2.382   1_545  S
O1635     Zr2427   2.386       .  S
O1635      H1662   0.966       .  S
O1636     Zr1648   2.486       .  S
O1636      C1638   1.296       .  A
O1637     Zr1655   2.417       .  S
O1637      C1638   1.284       .  A
C1638      C1716   1.485       .  S
O1639     Zr1651   2.453       .  S
O1639      C1641   1.292       .  A
O1640     Zr1654   2.433       .  S
O1640      C1641   1.286       .  A
C1641      C1691   1.488       .  S
O1642     Zr1651   2.455       .  S
O1642      C1644   1.292       .  A
O1643     Zr1655   2.421       .  S
O1643      C1644   1.283       .  A
C1644      C1680   1.482       .  S
O1645     Zr1648   2.482       .  S
O1645      C1647   1.296       .  A
O1646     Zr1654   2.399       .  S
O1646      C1647   1.281       .  A
C1647      C1736   1.475       .  S
Zr1648     O1649   2.435       .  S
Zr1648     O1650   2.435       .  S
Zr1648     O1656   2.381       .  S
Zr1648     O1657   2.381       .  S
Zr1648     O1660   2.380       .  S
Zr1648     O2430   2.383       .  S
O1649      H1669   0.990       .  S
O1649      H1674   0.990       .  S
O1650      H1670   0.990       .  S
Zr1651     O1652   2.434       .  S
Zr1651     O1653   2.436       .  S
Zr1651     O1657   2.371       .  S
Zr1651     O1656   2.369       .  S
Zr1651     O1661   2.369       .  S
Zr1651     O1659   2.370       .  S
O1652      H1668   0.990       .  S
O1653      H1667   0.990       .  S
O1653      H1677   0.990       .  S
Zr1654     O2389   2.413       .  S
Zr1654     O2395   2.421       .  S
Zr1654     O2406   2.382       .  S
Zr1654     O1657   2.383       .  S
Zr1654     O1659   2.380       .  S
Zr1654     O1660   2.395       .  S
Zr1655     O2392   2.417       .  S
Zr1655     O2398   2.421       .  S
Zr1655     O2407   2.386       .  S
Zr1655     O1656   2.389       .  S
Zr1655     O2430   2.387       .  S
Zr1655     O1661   2.385       .  S
O1656      H1664   0.966       .  S
O1658     Zr2420   2.383   1_545  S
O1658     Zr2427   2.387       .  S
O1659     Zr2403   2.368       .  S
O1659      H1663   0.966       .  S
O1660     Zr2400   2.379       .  S
O1660      H2437   0.966       .  S
O1661     Zr2403   2.372       .  S
H1665      O2432   0.966       .  S
C1678      C2286   1.488       .  S
C1678      C1679   1.396       .  A
C1678      C1683   1.402       .  A
C1679      C1680   1.401       .  A
C1679      H1684   1.085       .  S
C1680      C1681   1.414       .  A
C1681      C1682   1.413       .  A
C1681      H1685   1.084       .  S
C1682      C1683   1.416       .  A
C1683      H1686   1.084       .  S
C1687      C2270   1.502       .  S
C1687      C1688   1.405       .  A
C1687      C1692   1.401       .  A
C1688      C1689   1.413       .  A
C1688      H1693   1.079       .  S
C1689      C1690   1.414       .  A
C1690      C1691   1.416       .  A
C1690      H1694   1.083       .  S
C1691      C1692   1.404       .  A
C1692      H1695   1.084       .  S
C1696      C2254   1.477       .  S
C1696      C1697   1.398       .  A
C1696      C1701   1.393       .  A
C1697      C1698   1.407       .  A
C1697      H1702   1.084       .  S
C1698      C1699   1.413       .  A
C1699      C1700   1.416       .  A
C1699      H1703   1.083       .  S
C1700      C1701   1.401       .  A
C1701      H1704   1.085       .  S
C1705      C2241   1.533       .  S
C1705      C1706   1.421       .  A
C1705      C1710   1.417       .  A
C1706      C1707   1.400       .  A
C1706      H1711   1.080       .  S
C1707      C1708   1.397       .  A
C1708      C1709   1.408       .  A
C1708      H1712   1.083       .  S
C1709      C1710   1.410       .  A
C1710      H1713   1.067       .  S
C1714      C2222   1.494       .  S
C1714      C1715   1.413       .  A
C1714      C1719   1.406       .  A
C1715      C1716   1.402       .  A
C1715      H1720   1.084       .  S
C1716      C1717   1.411       .  A
C1717      C1718   1.408       .  A
C1717      H1721   1.084       .  S
C1718      C1719   1.406       .  A
C1719      H1722   1.081       .  S
C1723      C2209   1.479       .  S
C1723      C1724   1.404       .  A
C1723      C1728   1.399       .  A
C1724      C1725   1.402       .  A
C1724      H1729   1.084       .  S
C1725      C1726   1.408       .  A
C1726      C1727   1.402       .  A
C1726      H1730   1.083       .  S
C1727      C1728   1.399       .  A
C1728      H1731   1.083       .  S
C1732      C2193   1.487       .  S
C1732      C1733   1.408       .  A
C1732      C1737   1.404       .  A
C1733      C1734   1.400       .  A
C1733      H1738   1.085       .  S
C1734      C1735   1.405       .  A
C1735      C1736   1.414       .  A
C1735      H1739   1.084       .  S
C1736      C1737   1.404       .  A
C1737      H1740   1.082       .  S
O1741     Zr1753   2.449       .  S
O1741      C1743   1.288       .  A
O1742     Zr1779   2.420       .  S
O1742      C1743   1.286       .  A
C1743      C2273   1.479       .  S
O1744     Zr1756   2.451   1_554  S
O1744      C1746   1.288       .  A
O1745     Zr1780   2.410       .  S
O1745      C1746   1.284       .  A
C1746      C2174   1.468       .  S
O1747     Zr1756   2.470       .  S
O1747      C1749   1.293       .  A
O1748     Zr1779   2.400       .  S
O1748      C1749   1.278       .  A
C1749      C2302   1.506       .  S
O1750     Zr1753   2.465   1_554  S
O1750      C1752   1.290       .  A
O1751     Zr1780   2.380       .  S
O1751      C1752   1.280       .  A
C1752      C2142   1.495       .  S
Zr1753     O1754   2.434       .  S
Zr1753     O1755   2.433       .  S
Zr1753     O1759   2.379       .  S
Zr1753     O1760   2.368   1_556  S
Zr1753     O1783   2.370   1_556  S
Zr1753     O1785   2.380       .  S
O1754      H1797   0.990       .  S
O1755      H1796   0.990       .  S
O1755      H1800   0.990       .  S
Zr1756     O1757   2.435       .  S
Zr1756     O1758   2.435       .  S
Zr1756     O1760   2.380   1_556  S
Zr1756     O1759   2.370       .  S
Zr1756     O1784   2.375       .  S
Zr1756     O1786   2.386   1_556  S
O1757      H1798   0.990   1_556  S
O1757      H1801   0.990       .  S
O1758      H1791   0.990       .  S
O1759     Zr1779   2.367       .  S
O1760     Zr1780   2.373       .  S
O1760      H1787   0.966       .  S
O1761     Zr1773   2.478   1_554  S
O1761      C1763   1.293       .  A
O1762     Zr1780   2.399       .  S
O1762      C1763   1.283       .  A
C1763      C2126   1.498       .  S
O1764     Zr1776   2.434       .  S
O1764      C1766   1.285       .  A
O1765     Zr1779   2.417       .  S
O1765      C1766   1.287       .  A
C1766      C2257   1.484       .  S
O1767     Zr1776   2.463   1_554  S
O1767      C1769   1.289       .  A
O1768     Zr1780   2.389       .  S
O1768      C1769   1.281       .  A
C1769      C2158   1.486       .  S
O1770     Zr1773   2.477       .  S
O1770      C1772   1.295       .  A
O1771     Zr1779   2.394       .  S
O1771      C1772   1.277       .  A
C1772      C2289   1.504       .  S
Zr1773     O1774   2.435       .  S
Zr1773     O1775   2.433       .  S
Zr1773     O1781   2.379   1_556  S
Zr1773     O1782   2.375       .  S
Zr1773     O1785   2.380       .  S
Zr1773     O1783   2.379   1_556  S
O1774      H1794   0.990   1_556  S
O1774      H1799   0.990       .  S
O1775      H1795   0.990   1_556  S
Zr1776     O1777   2.434       .  S
Zr1776     O1778   2.434       .  S
Zr1776     O1782   2.381       .  S
Zr1776     O1781   2.370   1_556  S
Zr1776     O1786   2.373   1_556  S
Zr1776     O1784   2.385       .  S
O1777      H1793   0.990       .  S
O1778      H1792   0.990   1_556  S
O1778      H1802   0.990       .  S
Zr1779     O1782   2.373       .  S
Zr1779     O1784   2.375       .  S
Zr1779     O1785   2.379       .  S
Zr1780     O1781   2.369       .  S
Zr1780     O1783   2.369       .  S
Zr1780     O1786   2.369       .  S
O1781      H1789   0.966       .  S
O1784      H1788   0.966       .  S
O1785      H1790   0.966       .  S
C1803      C2129   1.486       .  S
C1803      C1804   1.401       .  A
C1803      C1808   1.399       .  A
C1804      C1805   1.411       .  A
C1804      H1809   1.084       .  S
C1805      C1832   1.470       .  S
C1805      C1806   1.399       .  A
C1806      C1807   1.403       .  A
C1806      H1810   1.084       .  S
C1807      C1894   1.456       .  S
C1807      C1808   1.402       .  A
C1808      H1811   1.084       .  S
C1812      C2177   1.512       .  S
C1812      C1813   1.415       .  A
C1812      C1817   1.405       .  A
C1813      C1814   1.402       .  A
C1813      H1818   1.082       .  S
C1814      C1914   1.467       .  S
C1814      C1815   1.402       .  A
C1815      C1816   1.399       .  A
C1815      H1819   1.082       .  S
C1816      C1852   1.469       .  S
C1816      C1817   1.402       .  A
C1817      H1820   1.071       .  S
C1821      C2145   1.473       .  S
C1821      C1822   1.397       .  A
C1821      C1826   1.394       .  A
C1822      C1823   1.408       .  A
C1822      H1827   1.085       .  S
C1823      C1841   1.462       .  S
C1823      C1824   1.400       .  A
C1824      C1825   1.399       .  A
C1824      H1828   1.084       .  S
C1825      C1903   1.451       .  S
C1825      C1826   1.396       .  A
C1826      H1829   1.085       .  S
O1830     Zr1842   2.383       .  S
O1830      C1832   1.277       .  A
O1831     Zr2640   2.470       .  S
O1831      C1832   1.295       .  A
O1833     Zr1845   2.391       .  S
O1833      C1835   1.276       .  A
O1834     Zr2641   2.447       .  S
O1834      C1835   1.291       .  A
C1835      C1992   1.450       .  S
O1836     Zr1845   2.395       .  S
O1836      C1838   1.277       .  A
O1837     Zr2640   2.453       .  S
O1837      C1838   1.292       .  A
C1838      C1983   1.458       .  S
O1839     Zr1842   2.392       .  S
O1839      C1841   1.279       .  A
O1840     Zr2641   2.443       .  S
O1840      C1841   1.290       .  A
Zr1842     O1843   2.434       .  S
Zr1842     O1844   2.438       .  S
Zr1842     O1848   2.362       .  S
Zr1842     O1849   2.355       .  S
Zr1842     O2644   2.351       .  S
Zr1842     O2646   2.355       .  S
O1843      H1886   0.990       .  S
O1844      H1885   0.990       .  S
O1844      H1889   0.990       .  S
Zr1845     O1846   2.438       .  S
Zr1845     O1847   2.436       .  S
Zr1845     O1849   2.370       .  S
Zr1845     O1848   2.362       .  S
Zr1845     O2645   2.365       .  S
Zr1845     O2647   2.370       .  S
O1846      H1887   0.990       .  S
O1846      H1890   0.990       .  S
O1847      H1880   0.990       .  S
O1848     Zr2640   2.380       .  S
O1849     Zr2641   2.389       .  S
O1849      H1876   0.966       .  S
O1850     Zr1862   2.418       .  S
O1850      C1852   1.284       .  A
O1851     Zr1869   2.449       .  S
O1851      C1852   1.290       .  A
O1853     Zr1865   2.397       .  S
O1853      C1855   1.278       .  A
O1854     Zr1868   2.451       .  S
O1854      C1855   1.293       .  A
C1855      C1965   1.459       .  S
O1856     Zr1865   2.418       .  S
O1856      C1858   1.282       .  A
O1857     Zr1869   2.438       .  S
O1857      C1858   1.288       .  A
C1858      C1974   1.459       .  S
O1859     Zr1862   2.425       .  S
O1859      C1861   1.286       .  A
O1860     Zr1868   2.440       .  S
O1860      C1861   1.289       .  A
C1861      C1956   1.470       .  S
Zr1862     O1863   2.436       .  S
Zr1862     O1864   2.430       .  S
Zr1862     O1870   2.362       .  S
Zr1862     O1871   2.355       .  S
Zr1862     O1874   2.351       .  S
Zr1862     O1872   2.359       .  S
O1863      H1883   0.990       .  S
O1863      H1888   0.990       .  S
O1864      H1884   0.989       .  S
Zr1865     O1866   2.434       .  S
Zr1865     O1867   2.434       .  S
Zr1865     O1871   2.370       .  S
Zr1865     O1870   2.361       .  S
Zr1865     O1875   2.359       .  S
Zr1865     O1873   2.372       .  S
O1866      H1882   0.990       .  S
O1867      H1881   0.990       .  S
O1867      H1891   0.990       .  S
Zr1868     O2603   2.470   1_545  S
Zr1868     O2609   2.453   1_545  S
Zr1868     O2620   2.380   1_545  S
Zr1868     O1871   2.388       .  S
Zr1868     O1873   2.401       .  S
Zr1868     O1874   2.385       .  S
Zr1869     O2606   2.447   1_545  S
Zr1869     O2612   2.443   1_545  S
Zr1869     O2621   2.389   1_545  S
Zr1869     O1870   2.393       .  S
Zr1869     O1872   2.381       .  S
Zr1869     O1875   2.395       .  S
O1870      H1878   0.965       .  S
O1872     Zr2614   2.351   1_545  S
O1873     Zr2617   2.365   1_545  S
O1873      H1877   0.966       .  S
O1874     Zr2614   2.355   1_545  S
O1874      H1879   0.966       .  S
O1875     Zr2617   2.370   1_545  S
O1892     Zr1904   2.402       .  S
O1892      C1894   1.279       .  A
O1893     Zr1930   2.445       .  S
O1893      C1894   1.291       .  A
O1895      C1897   1.277       .  A
O1896     Zr1931   2.464       .  S
O1896      C1897   1.294       .  A
C1897      C1994   1.470       .  S
O1898     Zr1907   2.383       .  S
O1898      C1900   1.277       .  A
O1899     Zr1930   2.462       .  S
O1899      C1900   1.293       .  A
C1900      C1985   1.468       .  S
O1901      C1903   1.278       .  A
O1902     Zr1931   2.443       .  S
O1902      C1903   1.291       .  A
Zr1904     O1905   2.433       .  S
Zr1904     O1910   2.365       .  S
Zr1904     O1936   2.364       .  S
O1905      H1948   0.990       .  S
Zr1907     O1908   2.437       .  S
Zr1907     O1910   2.360       .  S
Zr1907     O1935   2.354       .  S
O1908      H1952   0.990       .  S
O1910     Zr1930   2.379       .  S
O1911     Zr1931   2.387       .  S
O1911      H1938   0.966       .  S
O1912     Zr1924   2.430       .  S
O1912      C1914   1.284       .  A
O1913     Zr1931   2.449       .  S
O1913      C1914   1.291       .  A
O1915      C1917   1.280       .  A
O1916     Zr1930   2.436       .  S
O1916      C1917   1.289       .  A
C1917      C1967   1.457       .  S
O1918     Zr1927   2.406       .  S
O1918      C1920   1.282       .  A
O1919     Zr1931   2.448       .  S
O1919      C1920   1.290       .  A
C1920      C1976   1.464       .  S
O1921      C1923   1.285       .  A
O1922     Zr1930   2.439       .  S
O1922      C1923   1.290       .  A
C1923      C1958   1.467       .  S
Zr1924     O1926   2.435       .  S
Zr1924     O1932   2.372       .  S
Zr1924     O1934   2.370       .  S
O1926      H1946   0.990       .  S
Zr1927     O1928   2.433       .  S
Zr1927     O1932   2.354       .  S
Zr1927     O1937   2.358       .  S
Zr1930     O1933   2.385       .  S
Zr1930     O1935   2.386       .  S
Zr1930     O1936   2.395       .  S
Zr1931     O1932   2.395       .  S
Zr1931     O1934   2.398       .  S
Zr1931     O1937   2.384       .  S
O1932      H1940   0.965       .  S
O1935      H1939   0.966       .  S
O1936      H1941   0.966       .  S
C1954      C2161   1.482       .  S
C1954      C1955   1.397       .  A
C1954      C1959   1.402       .  A
C1955      C1956   1.401       .  A
C1955      H1960   1.084       .  S
C1956      C1957   1.403       .  A
C1957      C1958   1.407       .  A
C1957      H1961   1.082       .  S
C1958      C1959   1.404       .  A
C1959      H1962   1.084       .  S
C1963      C2110   1.496       .  S
C1963      C1964   1.406       .  A
C1963      C1968   1.401       .  A
C1964      C1965   1.400       .  A
C1964      H1969   1.083       .  S
C1965      C1966   1.397       .  A
C1966      C1967   1.397       .  A
C1966      H1970   1.082       .  S
C1967      C1968   1.402       .  A
C1968      H1971   1.081       .  S
C1972      C2094   1.499       .  S
C1972      C1973   1.406       .  A
C1972      C1977   1.409       .  A
C1973      C1974   1.398       .  A
C1973      H1978   1.080       .  S
C1974      C1975   1.401       .  A
C1975      C1976   1.399       .  A
C1975      H1979   1.082       .  S
C1976      C1977   1.403       .  A
C1977      H1980   1.083       .  S
C1981      C2081   1.478       .  S
C1981      C1982   1.399       .  A
C1981      C1986   1.399       .  A
C1982      C1983   1.400       .  A
C1982      H1987   1.085       .  S
C1983      C1984   1.403       .  A
C1984      C1985   1.401       .  A
C1984      H1988   1.084       .  S
C1985      C1986   1.410       .  A
C1986      H1989   1.085       .  S
C1990      C2062   1.484       .  S
C1990      C1991   1.393       .  A
C1990      C1995   1.403       .  A
C1991      C1992   1.394       .  A
C1991      H1996   1.083       .  S
C1992      C1993   1.398       .  A
C1993      C1994   1.401       .  A
C1993      H1997   1.084       .  S
C1994      C1995   1.415       .  A
C1995      H1998   1.084       .  S
O1999     Zr2011   2.476       .  S
O1999      C2001   1.292       .  A
O2000      C2001   1.283       .  A
C2001      C2225   1.491       .  S
O2002     Zr2014   2.430       .  S
O2002      C2004   1.283       .  A
O2003      C2004   1.287       .  A
C2004      C2113   1.468       .  S
O2005     Zr2014   2.446       .  S
O2005      C2007   1.286       .  A
O2006      C2007   1.287       .  A
C2007      C2238   1.480       .  S
O2008     Zr2011   2.485       .  S
O2008      C2010   1.296       .  A
O2009      C2010   1.275       .  A
C2010      C2078   1.506       .  S
Zr2011     O2012   2.434       .  S
Zr2011     O2013   2.435       .  S
Zr2011     O2789   2.390       .  S
Zr2011     O2790   2.374       .  S
O2012      H2827   0.990       .  S
O2013      H2054   0.990       .  S
O2013      H2058   0.990       .  S
Zr2014     O2015   2.435       .  S
Zr2014     O2016   2.435       .  S
Zr2014     O2018   2.384       .  S
Zr2014     O2017   2.374       .  S
O2015      H2056   0.990       .  S
O2015      H2059   0.990       .  S
O2016      H2049   0.990       .  S
O2017     Zr2783   2.390   1_545  S
O2018     Zr2783   2.374   1_545  S
O2018      H2045   0.965       .  S
O2019     Zr2031   2.466       .  S
O2019      C2021   1.291       .  A
O2020     Zr2810   2.393       .  S
O2020      C2021   1.283       .  A
C2021      C2065   1.490       .  S
O2022     Zr2034   2.435       .  S
O2022      C2024   1.285       .  A
O2023     Zr2037   2.417       .  S
O2023      C2024   1.286       .  A
C2024      C2206   1.465       .  S
O2025     Zr2034   2.447       .  S
O2025      C2027   1.287       .  A
O2026     Zr2038   2.407       .  S
O2026      C2027   1.282       .  A
C2027      C2097   1.467       .  S
O2028     Zr2031   2.486       .  S
O2028      C2030   1.295       .  A
O2029     Zr2809   2.392       .  S
O2029      C2030   1.278       .  A
C2030      C2190   1.500       .  S
Zr2031     O2032   2.435       .  S
Zr2031     O2033   2.433       .  S
Zr2031     O2811   2.385       .  S
Zr2031     O2812   2.374       .  S
Zr2031     O2043   2.372       .  S
Zr2031     O2041   2.379       .  S
O2032      H2052   0.990       .  S
O2032      H2057   0.990       .  S
O2033      H2053   0.990       .  S
Zr2034     O2035   2.434       .  S
Zr2034     O2036   2.434       .  S
Zr2034     O2040   2.378       .  S
Zr2034     O2039   2.369       .  S
Zr2034     O2044   2.377       .  S
Zr2034     O2042   2.379       .  S
O2035      H2051   0.990       .  S
O2036      H2050   0.990       .  S
O2036      H2060   0.990       .  S
Zr2037     O2801   2.392   1_545  S
Zr2037     O2040   2.369       .  S
Zr2037     O2042   2.368       .  S
Zr2037     O2815   2.383   1_545  S
Zr2038     O2792   2.393   1_545  S
Zr2038     O2039   2.375       .  S
Zr2038     O2813   2.378   1_545  S
Zr2038     O2044   2.367       .  S
O2039     Zr2803   2.385   1_545  S
O2039      H2047   0.966       .  S
O2040     Zr2803   2.374   1_545  S
O2041     Zr2810   2.378       .  S
O2042      H2046   0.966       .  S
O2043     Zr2809   2.383       .  S
O2043      H2048   0.965       .  S
H2055      O2784   0.990       .  S
C2061      C2062   1.406       .  A
C2061      C2066   1.414       .  A
C2061      H2068   1.083       .  S
C2062      C2063   1.420       .  A
C2063      C2064   1.398       .  A
C2063      C2070   1.527       .  S
C2064      C2065   1.406       .  A
C2064      H2069   1.084       .  S
C2065      C2066   1.421       .  A
C2066      C2067   1.517       .  S
C2067      F2071   1.385       .  S
C2067      F2072   1.383       .  S
C2067      F2073   1.384       .  S
C2070      F2074   1.381       .  S
C2070      F2075   1.384       .  S
C2070      F2076   1.385       .  S
C2077      C2078   1.413       .  A
C2077      C2082   1.412       .  A
C2077      H2084   1.082       .  S
C2078      C2079   1.439       .  A
C2079      C2080   1.401       .  A
C2079      C2086   1.528       .  S
C2080      C2081   1.392       .  A
C2080      H2085   1.084       .  S
C2081      C2082   1.409       .  A
C2082      C2083   1.514       .  S
C2083      F2087   1.384       .  S
C2083      F2088   1.383       .  S
C2083      F2089   1.383       .  S
C2086      F2862   1.383       .  S
C2086      F2091   1.380       .  S
C2086      F2092   1.386       .  S
F2090      C2858   1.383   1_545  S
C2093      C2094   1.412       .  A
C2093      C2098   1.401       .  A
C2093      H2100   1.080       .  S
C2094      C2095   1.427       .  A
C2095      C2096   1.407       .  A
C2095      C2102   1.520       .  S
C2096      C2097   1.399       .  A
C2096      H2101   1.085       .  S
C2097      C2098   1.407       .  A
C2098      C2099   1.518       .  S
C2099      F2103   1.385       .  S
C2099      F2104   1.381       .  S
C2099      F2105   1.384       .  S
C2102      F2106   1.384       .  S
C2102      F2107   1.383       .  S
C2102      F2108   1.384       .  S
C2109      C2110   1.408       .  A
C2109      C2114   1.394       .  A
C2109      H2116   1.079       .  S
C2110      C2111   1.426       .  A
C2111      C2112   1.408       .  A
C2111      C2118   1.518       .  S
C2112      C2113   1.400       .  A
C2112      H2117   1.085       .  S
C2113      C2114   1.409       .  A
C2114      C2115   1.515       .  S
C2115      F2119   1.385       .  S
C2115      F2120   1.372       .  S
C2115      F2121   1.383       .  S
C2118      F2122   1.383       .  S
C2118      F2123   1.383       .  S
C2118      F2124   1.384       .  S
C2125      C2126   1.409       .  A
C2125      C2130   1.403       .  A
C2125      H2132   1.083       .  S
C2126      C2127   1.423       .  A
C2127      C2128   1.416       .  A
C2127      C2134   1.516       .  S
C2128      C2129   1.404       .  A
C2128      H2133   1.083       .  S
C2129      C2130   1.416       .  A
C2130      C2131   1.522       .  S
C2131      F2135   1.384       .  S
C2131      F2136   1.383       .  S
C2131      F2137   1.378       .  S
C2134      F2138   1.383       .  S
C2134      F2139   1.382       .  S
C2134      F2140   1.385       .  S
C2141      C2142   1.412       .  A
C2141      C2146   1.396       .  A
C2141      H2148   1.082       .  S
C2142      C2143   1.424       .  A
C2143      C2144   1.412       .  A
C2143      C2150   1.518       .  S
C2144      C2145   1.402       .  A
C2144      H2149   1.083       .  S
C2145      C2146   1.412       .  A
C2146      C2147   1.526       .  S
C2147      F2151   1.385       .  S
C2147      F2152   1.384       .  S
C2147      F2153   1.381       .  S
C2150      F2154   1.383       .  S
C2150      F2155   1.383       .  S
C2150      F2156   1.384       .  S
C2157      C2158   1.404       .  A
C2157      C2162   1.397       .  A
C2157      H2164   1.084       .  S
C2158      C2159   1.420       .  A
C2159      C2160   1.413       .  A
C2159      C2166   1.517       .  S
C2160      C2161   1.405       .  A
C2160      H2165   1.083       .  S
C2161      C2162   1.419       .  A
C2162      C2163   1.524       .  S
C2163      F2167   1.385       .  S
C2163      F2168   1.377       .  S
C2163      F2169   1.383       .  S
C2166      F2170   1.382       .  S
C2166      F2171   1.384       .  S
C2166      F2172   1.385       .  S
C2173      C2174   1.390       .  A
C2173      C2178   1.404       .  A
C2173      H2180   1.084       .  S
C2174      C2175   1.408       .  A
C2175      C2176   1.407       .  A
C2175      C2182   1.516       .  S
C2176      C2177   1.414       .  A
C2176      H2181   1.082       .  S
C2177      C2178   1.438       .  A
C2178      C2179   1.520       .  S
C2179      F2183   1.385       .  S
C2179      F2184   1.379       .  S
C2179      F2185   1.382       .  S
C2182      F2186   1.384       .  S
C2182      F2187   1.381       .  S
C2182      F2188   1.385       .  S
C2189      C2190   1.411       .  A
C2189      C2194   1.419       .  A
C2189      H2196   1.082       .  S
C2190      C2191   1.430       .  A
C2191      C2192   1.391       .  A
C2191      C2198   1.517       .  S
C2192      C2193   1.393       .  A
C2192      H2197   1.084       .  S
C2193      C2194   1.419       .  A
C2194      C2195   1.516       .  S
C2195      F2199   1.385       .  S
C2195      F2200   1.381       .  S
C2195      F2201   1.383       .  S
C2198      F2974   1.383       .  S
C2198      F2203   1.375   1_655  S
C2198      F2204   1.386   1_655  S
F2202      C2970   1.383       .  S
C2205      C2206   1.402       .  A
C2205      C2210   1.411       .  A
C2205      H2212   1.083       .  S
C2206      C2207   1.413       .  A
C2207      C2208   1.391       .  A
C2207      C2214   1.510       .  S
C2208      C2209   1.396       .  A
C2208      H2213   1.085       .  S
C2209      C2210   1.421       .  A
C2210      C2211   1.519       .  S
C2211      F2215   1.385       .  S
C2211      F2216   1.377       .  S
C2211      F2217   1.383       .  S
C2214      F2218   1.377       .  S
C2214      F2219   1.381       .  S
C2214      F2220   1.383       .  S
C2221      C2222   1.395       .  A
C2221      C2226   1.395       .  A
C2221      H2228   1.084       .  S
C2222      C2223   1.425       .  A
C2223      C2224   1.421       .  A
C2223      C2230   1.515       .  S
C2224      C2225   1.407       .  A
C2224      H2229   1.083       .  S
C2225      C2226   1.414       .  A
C2226      C2999   1.505       .  S
C2227      C2998   1.505   1_545  S
C2227      F2231   1.375       .  S
C2227      F2232   1.381       .  S
C2227      F2233   1.383       .  S
C2230      F2234   1.382       .  S
C2230      F2235   1.383       .  S
C2230      F2236   1.385       .  S
C2237      C2238   1.398       .  A
C2237      C2242   1.417       .  A
C2237      H2244   1.081       .  S
C2238      C2239   1.405       .  A
C2239      C2240   1.405       .  A
C2239      C2246   1.518       .  S
C2240      C2241   1.419       .  A
C2240      H2245   1.080       .  S
C2241      C2242   1.439       .  A
C2242      C2243   1.526       .  S
C2243      F2247   1.385       .  S
C2243      F2248   1.382       .  S
C2243      F2249   1.383       .  S
C2246      F2251   1.383       .  S
C2246      F2252   1.384       .  S
C2253      C2254   1.402       .  A
C2253      C2258   1.410       .  A
C2253      H2260   1.083       .  S
C2254      C2255   1.416       .  A
C2255      C2256   1.399       .  A
C2255      C2262   1.521       .  S
C2256      C2257   1.403       .  A
C2256      H2261   1.081       .  S
C2257      C2258   1.423       .  A
C2258      C2259   1.520       .  S
C2259      F2263   1.385       .  S
C2259      F2264   1.383       .  S
C2259      F2265   1.384       .  S
C2262      F2266   1.380       .  S
C2262      F2267   1.384       .  S
C2262      F2268   1.384       .  S
C2269      C2270   1.410       .  A
C2269      C2274   1.409       .  A
C2269      H2276   1.083       .  S
C2270      C2271   1.427       .  A
C2271      C2272   1.408       .  A
C2271      C2278   1.518       .  S
C2272      C2273   1.399       .  A
C2272      H2277   1.084       .  S
C2273      C2274   1.413       .  A
C2274      C2275   1.517       .  S
C2275      F2279   1.384       .  S
C2275      F2280   1.381       .  S
C2275      F2281   1.384       .  S
C2278      F2282   1.379       .  S
C2278      F2283   1.382       .  S
C2278      F2284   1.385       .  S
C2285      C2286   1.399       .  A
C2285      C2290   1.404       .  A
C2285      H2292   1.083       .  S
C2286      C2287   1.412       .  A
C2287      C2288   1.414       .  A
C2287      C2294   1.515       .  S
C2288      C2289   1.413       .  A
C2288      H2293   1.082       .  S
C2289      C2290   1.435       .  A
C2290      C2291   1.528       .  S
C2291      F2295   1.385       .  S
C2291      F2296   1.382       .  S
C2291      F2297   1.382       .  S
C2294      F2298   1.382       .  S
C2294      F2299   1.383       .  S
C2294      F2300   1.384       .  S
C2301      C2302   1.415       .  A
C2301      C2306   1.415       .  A
C2301      H2308   1.082       .  S
C2302      C2303   1.434       .  A
C2303      C2304   1.403       .  A
C2303      C2310   1.527       .  S
C2304      C2305   1.397       .  A
C2304      H2309   1.083       .  S
C2305      C2306   1.411       .  A
C2306      C2307   1.516       .  S
C2307      F2311   1.385       .  S
C2307      F2312   1.382       .  S
C2307      F2313   1.383       .  S
C2310      F2314   1.383       .  S
C2310      F2315   1.383       .  S
C2310      F2316   1.385       .  S
O2317     Zr2329   2.411       .  S
O2317      C2319   1.283       .  A
O2318      C2319   1.298       .  A
C2319      C2383   1.491       .  S
O2320     Zr2332   2.403       .  S
O2320      C2322   1.279       .  A
O2321     Zr2356   2.491       .  S
O2321      C2322   1.300       .  A
C2322      C2506   1.478       .  S
O2323     Zr2332   2.396       .  S
O2323      C2325   1.280       .  A
O2324      C2325   1.291       .  A
C2325      C2499   1.464       .  S
O2326     Zr2329   2.418       .  S
O2326      C2328   1.285       .  A
O2327     Zr2356   2.485       .  S
O2327      C2328   1.298       .  A
C2328      C2461   1.490       .  S
Zr2329     O2330   2.432       .  S
Zr2329     O2331   2.435       .  S
Zr2329     O2335   2.362       .  S
Zr2329     O2336   2.362       .  S
Zr2329     O2359   2.365       .  S
O2330      H2373   0.990       .  S
O2331      H2372   0.989       .  S
O2331      H2376   0.990       .  S
Zr2332     O2333   2.437       .  S
Zr2332     O2334   2.435       .  S
Zr2332     O2336   2.360       .  S
Zr2332     O2335   2.362       .  S
Zr2332     O2362   2.363       .  S
O2333      H2374   0.990       .  S
O2333      H2377   0.990       .  S
O2334      H2367   0.990       .  S
O2336     Zr2356   2.393       .  S
O2336      H2363   0.965       .  S
O2337     Zr2349   2.413       .  S
O2337      C2339   1.283       .  A
O2338      C2339   1.298       .  A
C2339      C2454   1.488       .  S
O2340     Zr2352   2.413       .  S
O2340      C2342   1.284       .  A
O2341     Zr2355   2.471       .  S
O2341      C2342   1.295       .  A
C2342      C2479   1.478       .  S
O2343     Zr2352   2.417       .  S
O2343      C2345   1.283       .  A
O2344      C2345   1.298       .  A
C2345      C2490   1.478       .  S
O2346     Zr2349   2.423       .  S
O2346      C2348   1.286       .  A
O2347     Zr2355   2.462       .  S
O2347      C2348   1.293       .  A
C2348      C2470   1.483       .  S
Zr2349     O2350   2.438       .  S
Zr2349     O2351   2.435       .  S
Zr2349     O2357   2.366       .  S
Zr2349     O2358   2.360       .  S
Zr2349     O2361   2.367       .  S
O2350      H2370   0.990       .  S
O2350      H2375   0.990       .  S
O2351      H2371   0.990       .  S
Zr2352     O2353   2.434       .  S
Zr2352     O2354   2.436       .  S
Zr2352     O2358   2.364       .  S
Zr2352     O2357   2.362       .  S
Zr2352     O2360   2.366       .  S
O2353      H2369   0.990       .  S
O2354      H2368   0.990       .  S
O2354      H2378   0.990       .  S
Zr2355     O2358   2.393       .  S
Zr2355     O2360   2.403       .  S
Zr2355     O2361   2.401       .  S
Zr2356     O2359   2.407       .  S
Zr2356     O2362   2.399       .  S
O2357      H2365   0.966       .  S
O2360      H2364   0.966       .  S
O2361      H2366   0.966       .  S
C2379      C3077   1.487       .  S
C2379      C2380   1.397       .  A
C2379      C2384   1.402       .  A
C2380      C2381   1.400       .  A
C2380      H2385   1.085       .  S
C2381      C2396   1.486       .  S
C2381      C2382   1.417       .  A
C2382      C2383   1.415       .  A
C2382      H2386   1.082       .  S
C2383      C2384   1.415       .  A
C2384      H2387   1.084       .  S
O2388     Zr2400   2.450       .  S
O2388      C2390   1.290       .  A
O2389      C2390   1.284       .  A
C2390      C2497   1.471       .  S
O2391     Zr2403   2.456       .  S
O2391      C2393   1.293       .  A
O2392      C2393   1.283       .  A
C2393      C2472   1.481       .  S
O2394     Zr2403   2.466       .  S
O2394      C2396   1.295       .  A
O2395      C2396   1.283       .  A
O2397     Zr2400   2.465       .  S
O2397      C2399   1.292       .  A
O2398      C2399   1.286       .  A
C2399      C2481   1.484       .  S
Zr2400     O2401   2.433       .  S
Zr2400     O2402   2.436       .  S
Zr2400     O2406   2.382       .  S
Zr2400     O2407   2.373       .  S
Zr2400     O2430   2.377       .  S
O2401      H2444   0.990       .  S
O2402      H2443   0.990       .  S
O2402      H2447   0.990       .  S
Zr2403     O2404   2.435       .  S
Zr2403     O2405   2.435       .  S
Zr2403     O2407   2.373       .  S
Zr2403     O2406   2.368       .  S
O2404      H2445   0.990       .  S
O2404      H2448   0.990       .  S
O2405      H2438   0.990       .  S
O2407      H2434   0.966       .  S
O2408     Zr2420   2.486       .  S
O2408      C2410   1.296       .  A
O2409     Zr2427   2.417   1_565  S
O2409      C2410   1.284       .  A
C2410      C2488   1.485       .  S
O2411     Zr2423   2.453       .  S
O2411      C2413   1.292       .  A
O2412     Zr2426   2.433       .  S
O2412      C2413   1.286       .  A
C2413      C2463   1.488       .  S
O2414     Zr2423   2.455       .  S
O2414      C2416   1.292       .  A
O2415     Zr2427   2.421   1_565  S
O2415      C2416   1.283       .  A
C2416      C2452   1.482       .  S
O2417     Zr2420   2.482       .  S
O2417      C2419   1.296       .  A
O2418     Zr2426   2.399       .  S
O2418      C2419   1.281       .  A
C2419      C2508   1.475       .  S
Zr2420     O2421   2.435       .  S
Zr2420     O2422   2.435       .  S
Zr2420     O2428   2.381       .  S
Zr2420     O2429   2.381       .  S
Zr2420     O2432   2.380   1_565  S
O2421      H2441   0.990       .  S
O2421      H2446   0.990       .  S
O2422      H2442   0.990       .  S
Zr2423     O2424   2.434       .  S
Zr2423     O2425   2.436       .  S
Zr2423     O2429   2.371       .  S
Zr2423     O2428   2.369       .  S
Zr2423     O2433   2.369       .  S
Zr2423     O2431   2.370       .  S
O2424      H2440   0.990       .  S
O2425      H2439   0.990       .  S
O2425      H2449   0.990       .  S
Zr2426     O2429   2.383       .  S
Zr2426     O2431   2.380       .  S
Zr2426     O2432   2.395   1_565  S
Zr2427     O2428   2.389   1_545  S
Zr2427     O2433   2.385   1_545  S
O2428      H2436   0.966       .  S
O2431      H2435   0.966       .  S
C2450      C3058   1.488       .  S
C2450      C2451   1.396       .  A
C2450      C2455   1.402       .  A
C2451      C2452   1.401       .  A
C2451      H2456   1.085       .  S
C2452      C2453   1.414       .  A
C2453      C2454   1.413       .  A
C2453      H2457   1.084       .  S
C2454      C2455   1.416       .  A
C2455      H2458   1.084       .  S
C2459      C3042   1.502       .  S
C2459      C2460   1.405       .  A
C2459      C2464   1.401       .  A
C2460      C2461   1.413       .  A
C2460      H2465   1.079       .  S
C2461      C2462   1.414       .  A
C2462      C2463   1.416       .  A
C2462      H2466   1.083       .  S
C2463      C2464   1.404       .  A
C2464      H2467   1.084       .  S
C2468      C3026   1.477       .  S
C2468      C2469   1.398       .  A
C2468      C2473   1.393       .  A
C2469      C2470   1.407       .  A
C2469      H2474   1.084       .  S
C2470      C2471   1.413       .  A
C2471      C2472   1.416       .  A
C2471      H2475   1.083       .  S
C2472      C2473   1.401       .  A
C2473      H2476   1.085       .  S
C2477      C3013   1.533       .  S
C2477      C2478   1.421       .  A
C2477      C2482   1.417       .  A
C2478      C2479   1.400       .  A
C2478      H2483   1.080       .  S
C2479      C2480   1.397       .  A
C2480      C2481   1.408       .  A
C2480      H2484   1.083       .  S
C2481      C2482   1.410       .  A
C2482      H2485   1.067       .  S
C2486      C2994   1.494       .  S
C2486      C2487   1.413       .  A
C2486      C2491   1.406       .  A
C2487      C2488   1.402       .  A
C2487      H2492   1.084       .  S
C2488      C2489   1.411       .  A
C2489      C2490   1.408       .  A
C2489      H2493   1.084       .  S
C2490      C2491   1.406       .  A
C2491      H2494   1.081       .  S
C2495      C2981   1.479       .  S
C2495      C2496   1.404       .  A
C2495      C2500   1.399       .  A
C2496      C2497   1.402       .  A
C2496      H2501   1.084       .  S
C2497      C2498   1.408       .  A
C2498      C2499   1.402       .  A
C2498      H2502   1.083       .  S
C2499      C2500   1.399       .  A
C2500      H2503   1.083       .  S
C2504      C2965   1.487       .  S
C2504      C2505   1.408       .  A
C2504      C2509   1.404       .  A
C2505      C2506   1.400       .  A
C2505      H2510   1.085       .  S
C2506      C2507   1.405       .  A
C2507      C2508   1.414       .  A
C2507      H2511   1.084       .  S
C2508      C2509   1.404       .  A
C2509      H2512   1.082       .  S
O2513     Zr2525   2.449       .  S
O2513      C2515   1.288       .  A
O2514     Zr2551   2.420       .  S
O2514      C2515   1.286       .  A
C2515      C3045   1.479       .  S
O2516     Zr2528   2.451   1_554  S
O2516      C2518   1.288       .  A
O2517     Zr2552   2.410       .  S
O2517      C2518   1.284       .  A
C2518      C2946   1.468       .  S
O2519     Zr2528   2.470       .  S
O2519      C2521   1.293       .  A
O2520     Zr2551   2.400       .  S
O2520      C2521   1.278       .  A
C2521      C3074   1.506       .  S
O2522     Zr2525   2.465   1_554  S
O2522      C2524   1.290       .  A
O2523     Zr2552   2.380       .  S
O2523      C2524   1.280       .  A
C2524      C2914   1.495       .  S
Zr2525     O2526   2.434       .  S
Zr2525     O2527   2.433       .  S
Zr2525     O2531   2.379       .  S
Zr2525     O2532   2.368   1_556  S
Zr2525     O2555   2.370   1_556  S
Zr2525     O2557   2.380       .  S
O2526      H2569   0.990       .  S
O2527      H2568   0.990       .  S
O2527      H2572   0.990       .  S
Zr2528     O2529   2.435       .  S
Zr2528     O2530   2.435       .  S
Zr2528     O2532   2.380   1_556  S
Zr2528     O2531   2.370       .  S
Zr2528     O2556   2.375       .  S
Zr2528     O2558   2.386   1_556  S
O2529      H2570   0.990   1_556  S
O2529      H2573   0.990       .  S
O2530      H2563   0.990       .  S
O2531     Zr2551   2.367       .  S
O2532     Zr2552   2.373       .  S
O2532      H2559   0.966       .  S
O2533     Zr2545   2.478   1_554  S
O2533      C2535   1.293       .  A
O2534     Zr2552   2.399       .  S
O2534      C2535   1.283       .  A
C2535      C2898   1.498       .  S
O2536     Zr2548   2.434       .  S
O2536      C2538   1.285       .  A
O2537     Zr2551   2.417       .  S
O2537      C2538   1.287       .  A
C2538      C3029   1.484       .  S
O2539     Zr2548   2.463   1_554  S
O2539      C2541   1.289       .  A
O2540     Zr2552   2.389       .  S
O2540      C2541   1.281       .  A
C2541      C2930   1.486       .  S
O2542     Zr2545   2.477       .  S
O2542      C2544   1.295       .  A
O2543     Zr2551   2.394       .  S
O2543      C2544   1.277       .  A
C2544      C3061   1.504       .  S
Zr2545     O2546   2.435       .  S
Zr2545     O2547   2.433       .  S
Zr2545     O2553   2.379   1_556  S
Zr2545     O2554   2.375       .  S
Zr2545     O2557   2.380       .  S
Zr2545     O2555   2.379   1_556  S
O2546      H2566   0.990   1_556  S
O2546      H2571   0.990       .  S
O2547      H2567   0.990   1_556  S
Zr2548     O2549   2.434       .  S
Zr2548     O2550   2.434       .  S
Zr2548     O2554   2.381       .  S
Zr2548     O2553   2.370   1_556  S
Zr2548     O2558   2.373   1_556  S
Zr2548     O2556   2.385       .  S
O2549      H2565   0.990       .  S
O2550      H2564   0.990   1_556  S
O2550      H2574   0.990       .  S
Zr2551     O2554   2.373       .  S
Zr2551     O2556   2.375       .  S
Zr2551     O2557   2.379       .  S
Zr2552     O2553   2.369       .  S
Zr2552     O2555   2.369       .  S
Zr2552     O2558   2.369       .  S
O2553      H2561   0.966       .  S
O2556      H2560   0.966       .  S
O2557      H2562   0.966       .  S
C2575      C2901   1.486       .  S
C2575      C2576   1.401       .  A
C2575      C2580   1.399       .  A
C2576      C2577   1.411       .  A
C2576      H2581   1.084       .  S
C2577      C2604   1.470       .  S
C2577      C2578   1.399       .  A
C2578      C2579   1.403       .  A
C2578      H2582   1.084       .  S
C2579      C2666   1.456       .  S
C2579      C2580   1.402       .  A
C2580      H2583   1.084       .  S
C2584      C2949   1.512       .  S
C2584      C2585   1.415       .  A
C2584      C2589   1.405       .  A
C2585      C2586   1.402       .  A
C2585      H2590   1.082       .  S
C2586      C2686   1.467       .  S
C2586      C2587   1.402       .  A
C2587      C2588   1.399       .  A
C2587      H2591   1.082       .  S
C2588      C2624   1.469       .  S
C2588      C2589   1.402       .  A
C2589      H2592   1.071       .  S
C2593      C2917   1.473       .  S
C2593      C2594   1.397       .  A
C2593      C2598   1.394       .  A
C2594      C2595   1.408       .  A
C2594      H2599   1.085       .  S
C2595      C2613   1.462       .  S
C2595      C2596   1.400       .  A
C2596      C2597   1.399       .  A
C2596      H2600   1.084       .  S
C2597      C2675   1.451       .  S
C2597      C2598   1.396       .  A
C2598      H2601   1.085       .  S
O2602     Zr2614   2.383       .  S
O2602      C2604   1.277       .  A
O2603      C2604   1.295       .  A
O2605     Zr2617   2.391       .  S
O2605      C2607   1.276       .  A
O2606      C2607   1.291       .  A
C2607      C2764   1.450       .  S
O2608     Zr2617   2.395       .  S
O2608      C2610   1.277       .  A
O2609      C2610   1.292       .  A
C2610      C2755   1.458       .  S
O2611     Zr2614   2.392       .  S
O2611      C2613   1.279       .  A
O2612      C2613   1.290       .  A
Zr2614     O2615   2.434       .  S
Zr2614     O2616   2.438       .  S
Zr2614     O2620   2.362       .  S
Zr2614     O2621   2.355       .  S
O2615      H2658   0.990       .  S
O2616      H2657   0.990       .  S
O2616      H2661   0.990       .  S
Zr2617     O2618   2.438       .  S
Zr2617     O2619   2.436       .  S
Zr2617     O2621   2.370       .  S
Zr2617     O2620   2.362       .  S
O2618      H2659   0.990       .  S
O2618      H2662   0.990       .  S
O2619      H2652   0.990       .  S
O2621      H2648   0.966       .  S
O2622     Zr2634   2.418       .  S
O2622      C2624   1.284       .  A
O2623     Zr2641   2.449       .  S
O2623      C2624   1.290       .  A
O2625     Zr2637   2.397       .  S
O2625      C2627   1.278       .  A
O2626     Zr2640   2.451       .  S
O2626      C2627   1.293       .  A
C2627      C2737   1.459       .  S
O2628     Zr2637   2.418       .  S
O2628      C2630   1.282       .  A
O2629     Zr2641   2.438       .  S
O2629      C2630   1.288       .  A
C2630      C2746   1.459       .  S
O2631     Zr2634   2.425       .  S
O2631      C2633   1.286       .  A
O2632     Zr2640   2.440       .  S
O2632      C2633   1.289       .  A
C2633      C2728   1.470       .  S
Zr2634     O2635   2.436       .  S
Zr2634     O2636   2.430       .  S
Zr2634     O2642   2.362       .  S
Zr2634     O2643   2.355       .  S
Zr2634     O2646   2.351       .  S
Zr2634     O2644   2.359       .  S
O2635      H2655   0.990       .  S
O2635      H2660   0.990       .  S
O2636      H2656   0.989       .  S
Zr2637     O2638   2.434       .  S
Zr2637     O2639   2.434       .  S
Zr2637     O2643   2.370       .  S
Zr2637     O2642   2.361       .  S
Zr2637     O2647   2.359       .  S
Zr2637     O2645   2.372       .  S
O2638      H2654   0.990       .  S
O2639      H2653   0.990       .  S
O2639      H2663   0.990       .  S
Zr2640     O2643   2.388       .  S
Zr2640     O2645   2.401       .  S
Zr2640     O2646   2.385       .  S
Zr2641     O2642   2.393       .  S
Zr2641     O2644   2.381       .  S
Zr2641     O2647   2.395       .  S
O2642      H2650   0.965       .  S
O2645      H2649   0.966       .  S
O2646      H2651   0.966       .  S
O2664     Zr2676   2.402       .  S
O2664      C2666   1.279       .  A
O2665     Zr2702   2.445       .  S
O2665      C2666   1.291       .  A
O2667      C2669   1.277       .  A
O2668     Zr2703   2.464       .  S
O2668      C2669   1.294       .  A
C2669      C2766   1.470       .  S
O2670     Zr2679   2.383       .  S
O2670      C2672   1.277       .  A
O2671     Zr2702   2.462       .  S
O2671      C2672   1.293       .  A
C2672      C2757   1.468       .  S
O2673      C2675   1.278       .  A
O2674     Zr2703   2.443       .  S
O2674      C2675   1.291       .  A
Zr2676     O2677   2.433       .  S
Zr2676     O2682   2.365       .  S
Zr2676     O2708   2.364       .  S
O2677      H2720   0.990       .  S
Zr2679     O2680   2.437       .  S
Zr2679     O2682   2.360       .  S
Zr2679     O2707   2.354       .  S
O2680      H2724   0.990       .  S
O2682     Zr2702   2.379       .  S
O2683     Zr2703   2.387       .  S
O2683      H2710   0.966       .  S
O2684     Zr2696   2.430       .  S
O2684      C2686   1.284       .  A
O2685     Zr2703   2.449       .  S
O2685      C2686   1.291       .  A
O2687      C2689   1.280       .  A
O2688     Zr2702   2.436       .  S
O2688      C2689   1.289       .  A
C2689      C2739   1.457       .  S
O2690     Zr2699   2.406       .  S
O2690      C2692   1.282       .  A
O2691     Zr2703   2.448       .  S
O2691      C2692   1.290       .  A
C2692      C2748   1.464       .  S
O2693      C2695   1.285       .  A
O2694     Zr2702   2.439       .  S
O2694      C2695   1.290       .  A
C2695      C2730   1.467       .  S
Zr2696     O2698   2.435       .  S
Zr2696     O2704   2.372       .  S
Zr2696     O2706   2.370       .  S
O2698      H2718   0.990       .  S
Zr2699     O2700   2.433       .  S
Zr2699     O2704   2.354       .  S
Zr2699     O2709   2.358       .  S
Zr2702     O2705   2.385       .  S
Zr2702     O2707   2.386       .  S
Zr2702     O2708   2.395       .  S
Zr2703     O2704   2.395       .  S
Zr2703     O2706   2.398       .  S
Zr2703     O2709   2.384       .  S
O2704      H2712   0.965       .  S
O2707      H2711   0.966       .  S
O2708      H2713   0.966       .  S
C2726      C2933   1.482       .  S
C2726      C2727   1.397       .  A
C2726      C2731   1.402       .  A
C2727      C2728   1.401       .  A
C2727      H2732   1.084       .  S
C2728      C2729   1.403       .  A
C2729      C2730   1.407       .  A
C2729      H2733   1.082       .  S
C2730      C2731   1.404       .  A
C2731      H2734   1.084       .  S
C2735      C2882   1.496       .  S
C2735      C2736   1.406       .  A
C2735      C2740   1.401       .  A
C2736      C2737   1.400       .  A
C2736      H2741   1.083       .  S
C2737      C2738   1.397       .  A
C2738      C2739   1.397       .  A
C2738      H2742   1.082       .  S
C2739      C2740   1.402       .  A
C2740      H2743   1.081       .  S
C2744      C2866   1.499       .  S
C2744      C2745   1.406       .  A
C2744      C2749   1.409       .  A
C2745      C2746   1.398       .  A
C2745      H2750   1.080       .  S
C2746      C2747   1.401       .  A
C2747      C2748   1.399       .  A
C2747      H2751   1.082       .  S
C2748      C2749   1.403       .  A
C2749      H2752   1.083       .  S
C2753      C2853   1.478       .  S
C2753      C2754   1.399       .  A
C2753      C2758   1.399       .  A
C2754      C2755   1.400       .  A
C2754      H2759   1.085       .  S
C2755      C2756   1.403       .  A
C2756      C2757   1.401       .  A
C2756      H2760   1.084       .  S
C2757      C2758   1.410       .  A
C2758      H2761   1.085       .  S
C2762      C2834   1.484       .  S
C2762      C2763   1.393       .  A
C2762      C2767   1.403       .  A
C2763      C2764   1.394       .  A
C2763      H2768   1.083       .  S
C2764      C2765   1.398       .  A
C2765      C2766   1.401       .  A
C2765      H2769   1.084       .  S
C2766      C2767   1.415       .  A
C2767      H2770   1.084       .  S
O2771     Zr2783   2.476       .  S
O2771      C2773   1.292       .  A
O2772      C2773   1.283       .  A
C2773      C2997   1.491       .  S
O2774     Zr2786   2.430       .  S
O2774      C2776   1.283       .  A
O2775      C2776   1.287       .  A
C2776      C2885   1.468       .  S
O2777     Zr2786   2.446       .  S
O2777      C2779   1.286       .  A
O2778      C2779   1.287       .  A
C2779      C3010   1.480       .  S
O2780     Zr2783   2.485       .  S
O2780      C2782   1.296       .  A
O2781      C2782   1.275       .  A
C2782      C2850   1.506       .  S
Zr2783     O2784   2.434       .  S
Zr2783     O2785   2.435       .  S
O2785      H2826   0.990       .  S
O2785      H2830   0.990       .  S
Zr2786     O2787   2.435       .  S
Zr2786     O2788   2.435       .  S
Zr2786     O2790   2.384       .  S
Zr2786     O2789   2.374       .  S
O2787      H2828   0.990       .  S
O2787      H2831   0.990       .  S
O2788      H2821   0.990       .  S
O2790      H2817   0.965       .  S
O2791     Zr2803   2.466       .  S
O2791      C2793   1.291       .  A
O2792      C2793   1.283       .  A
C2793      C2837   1.490       .  S
O2794     Zr2806   2.435       .  S
O2794      C2796   1.285       .  A
O2795     Zr2809   2.417       .  S
O2795      C2796   1.286       .  A
C2796      C2978   1.465       .  S
O2797     Zr2806   2.447       .  S
O2797      C2799   1.287       .  A
O2798     Zr2810   2.407       .  S
O2798      C2799   1.282       .  A
C2799      C2869   1.467       .  S
O2800     Zr2803   2.486       .  S
O2800      C2802   1.295       .  A
O2801      C2802   1.278       .  A
C2802      C2962   1.500       .  S
Zr2803     O2804   2.435       .  S
Zr2803     O2805   2.433       .  S
Zr2803     O2815   2.372       .  S
Zr2803     O2813   2.379       .  S
O2804      H2824   0.990       .  S
O2804      H2829   0.990       .  S
O2805      H2825   0.990       .  S
Zr2806     O2807   2.434       .  S
Zr2806     O2808   2.434       .  S
Zr2806     O2812   2.378       .  S
Zr2806     O2811   2.369       .  S
Zr2806     O2816   2.377       .  S
Zr2806     O2814   2.379       .  S
O2807      H2823   0.990       .  S
O2808      H2822   0.990       .  S
O2808      H2832   0.990       .  S
Zr2809     O2812   2.369       .  S
Zr2809     O2814   2.368       .  S
Zr2810     O2811   2.375       .  S
Zr2810     O2816   2.367       .  S
O2811      H2819   0.966       .  S
O2814      H2818   0.966       .  S
O2815      H2820   0.965       .  S
C2833      C2834   1.406       .  A
C2833      C2838   1.414       .  A
C2833      H2840   1.083       .  S
C2834      C2835   1.420       .  A
C2835      C2836   1.398       .  A
C2835      C2842   1.527       .  S
C2836      C2837   1.406       .  A
C2836      H2841   1.084       .  S
C2837      C2838   1.421       .  A
C2838      C2839   1.517       .  S
C2839      F2843   1.385       .  S
C2839      F2844   1.383       .  S
C2839      F2845   1.384       .  S
C2842      F2846   1.381       .  S
C2842      F2847   1.384       .  S
C2842      F2848   1.385   1_565  S
C2849      C2850   1.413       .  A
C2849      C2854   1.412       .  A
C2849      H2856   1.082       .  S
C2850      C2851   1.439       .  A
C2851      C2852   1.401       .  A
C2851      C2858   1.528       .  S
C2852      C2853   1.392       .  A
C2852      H2857   1.084       .  S
C2853      C2854   1.409       .  A
C2854      C2855   1.514       .  S
C2855      F2859   1.384       .  S
C2855      F2860   1.383       .  S
C2855      F2861   1.383       .  S
C2858      F2863   1.380       .  S
C2858      F2864   1.386       .  S
C2865      C2866   1.412       .  A
C2865      C2870   1.401       .  A
C2865      H2872   1.080       .  S
C2866      C2867   1.427       .  A
C2867      C2868   1.407       .  A
C2867      C2874   1.520       .  S
C2868      C2869   1.399       .  A
C2868      H2873   1.085       .  S
C2869      C2870   1.407       .  A
C2870      C2871   1.518       .  S
C2871      F2875   1.385       .  S
C2871      F2876   1.381       .  S
C2871      F2877   1.384       .  S
C2874      F2878   1.384       .  S
C2874      F2879   1.383       .  S
C2874      F2880   1.384       .  S
C2881      C2882   1.408       .  A
C2881      C2886   1.394       .  A
C2881      H2888   1.079       .  S
C2882      C2883   1.426       .  A
C2883      C2884   1.408       .  A
C2883      C2890   1.518       .  S
C2884      C2885   1.400       .  A
C2884      H2889   1.085       .  S
C2885      C2886   1.409       .  A
C2886      C2887   1.515       .  S
C2887      F2891   1.385       .  S
C2887      F2892   1.372       .  S
C2887      F2893   1.383       .  S
C2890      F2894   1.383       .  S
C2890      F2895   1.383       .  S
C2890      F2896   1.384       .  S
C2897      C2898   1.409       .  A
C2897      C2902   1.403       .  A
C2897      H2904   1.083       .  S
C2898      C2899   1.423       .  A
C2899      C2900   1.416       .  A
C2899      C2906   1.516       .  S
C2900      C2901   1.404       .  A
C2900      H2905   1.083       .  S
C2901      C2902   1.416       .  A
C2902      C2903   1.522       .  S
C2903      F2907   1.384       .  S
C2903      F2908   1.383       .  S
C2903      F2909   1.378       .  S
C2906      F2910   1.383       .  S
C2906      F2911   1.382       .  S
C2906      F2912   1.385       .  S
C2913      C2914   1.412       .  A
C2913      C2918   1.396       .  A
C2913      H2920   1.082       .  S
C2914      C2915   1.424       .  A
C2915      C2916   1.412       .  A
C2915      C2922   1.518       .  S
C2916      C2917   1.402       .  A
C2916      H2921   1.083       .  S
C2917      C2918   1.412       .  A
C2918      C2919   1.526       .  S
C2919      F2923   1.385       .  S
C2919      F2924   1.384       .  S
C2919      F2925   1.381       .  S
C2922      F2926   1.383       .  S
C2922      F2927   1.383       .  S
C2922      F2928   1.384       .  S
C2929      C2930   1.404       .  A
C2929      C2934   1.397       .  A
C2929      H2936   1.084       .  S
C2930      C2931   1.420       .  A
C2931      C2932   1.413       .  A
C2931      C2938   1.517       .  S
C2932      C2933   1.405       .  A
C2932      H2937   1.083       .  S
C2933      C2934   1.419       .  A
C2934      C2935   1.524       .  S
C2935      F2939   1.385       .  S
C2935      F2940   1.377       .  S
C2935      F2941   1.383       .  S
C2938      F2942   1.382       .  S
C2938      F2943   1.384       .  S
C2938      F2944   1.385       .  S
C2945      C2946   1.390       .  A
C2945      C2950   1.404       .  A
C2945      H2952   1.084       .  S
C2946      C2947   1.408       .  A
C2947      C2948   1.407       .  A
C2947      C2954   1.516       .  S
C2948      C2949   1.414       .  A
C2948      H2953   1.082       .  S
C2949      C2950   1.438       .  A
C2950      C2951   1.520       .  S
C2951      F2955   1.385       .  S
C2951      F2956   1.379       .  S
C2951      F2957   1.382       .  S
C2954      F2958   1.384       .  S
C2954      F2959   1.381       .  S
C2954      F2960   1.385       .  S
C2961      C2962   1.411       .  A
C2961      C2966   1.419       .  A
C2961      H2968   1.082       .  S
C2962      C2963   1.430       .  A
C2963      C2964   1.391       .  A
C2963      C2970   1.517       .  S
C2964      C2965   1.393       .  A
C2964      H2969   1.084       .  S
C2965      C2966   1.419       .  A
C2966      C2967   1.516       .  S
C2967      F2971   1.385       .  S
C2967      F2972   1.381       .  S
C2967      F2973   1.383       .  S
C2970      F2975   1.375   1_655  S
C2970      F2976   1.386   1_655  S
C2977      C2978   1.402       .  A
C2977      C2982   1.411       .  A
C2977      H2984   1.083       .  S
C2978      C2979   1.413       .  A
C2979      C2980   1.391       .  A
C2979      C2986   1.510       .  S
C2980      C2981   1.396       .  A
C2980      H2985   1.085       .  S
C2981      C2982   1.421       .  A
C2982      C2983   1.519       .  S
C2983      F2987   1.385       .  S
C2983      F2988   1.377       .  S
C2983      F2989   1.383       .  S
C2986      F2990   1.377       .  S
C2986      F2991   1.381       .  S
C2986      F2992   1.383       .  S
C2993      C2994   1.395       .  A
C2993      C2998   1.395       .  A
C2993      H3000   1.084       .  S
C2994      C2995   1.425       .  A
C2995      C2996   1.421       .  A
C2995      C3002   1.515       .  S
C2996      C2997   1.407       .  A
C2996      H3001   1.083       .  S
C2997      C2998   1.414       .  A
C2999      F3003   1.375       .  S
C2999      F3004   1.381       .  S
C2999      F3005   1.383       .  S
C3002      F3006   1.382       .  S
C3002      F3007   1.383       .  S
C3002      F3008   1.385       .  S
C3009      C3010   1.398       .  A
C3009      C3014   1.417       .  A
C3009      H3016   1.081       .  S
C3010      C3011   1.405       .  A
C3011      C3012   1.405       .  A
C3011      C3018   1.518       .  S
C3012      C3013   1.419       .  A
C3012      H3017   1.080       .  S
C3013      C3014   1.439       .  A
C3014      C3015   1.526       .  S
C3015      F3019   1.385       .  S
C3015      F3020   1.382       .  S
C3015      F3021   1.383       .  S
C3018      F3023   1.383       .  S
C3018      F3024   1.384       .  S
C3025      C3026   1.402       .  A
C3025      C3030   1.410       .  A
C3025      H3032   1.083       .  S
C3026      C3027   1.416       .  A
C3027      C3028   1.399       .  A
C3027      C3034   1.521       .  S
C3028      C3029   1.403       .  A
C3028      H3033   1.081       .  S
C3029      C3030   1.423       .  A
C3030      C3031   1.520       .  S
C3031      F3035   1.385       .  S
C3031      F3036   1.383       .  S
C3031      F3037   1.384       .  S
C3034      F3038   1.380       .  S
C3034      F3039   1.384       .  S
C3034      F3040   1.384       .  S
C3041      C3042   1.410       .  A
C3041      C3046   1.409       .  A
C3041      H3048   1.083       .  S
C3042      C3043   1.427       .  A
C3043      C3044   1.408       .  A
C3043      C3050   1.518       .  S
C3044      C3045   1.399       .  A
C3044      H3049   1.084       .  S
C3045      C3046   1.413       .  A
C3046      C3047   1.517       .  S
C3047      F3051   1.384       .  S
C3047      F3052   1.381       .  S
C3047      F3053   1.384       .  S
C3050      F3054   1.379       .  S
C3050      F3055   1.382       .  S
C3050      F3056   1.385       .  S
C3057      C3058   1.399       .  A
C3057      C3062   1.404       .  A
C3057      H3064   1.083       .  S
C3058      C3059   1.412       .  A
C3059      C3060   1.414       .  A
C3059      C3066   1.515       .  S
C3060      C3061   1.413       .  A
C3060      H3065   1.082       .  S
C3061      C3062   1.435       .  A
C3062      C3063   1.528       .  S
C3063      F3067   1.385       .  S
C3063      F3068   1.382       .  S
C3063      F3069   1.382       .  S
C3066      F3070   1.382       .  S
C3066      F3071   1.383       .  S
C3066      F3072   1.384       .  S
C3073      C3074   1.415       .  A
C3073      C3078   1.415       .  A
C3073      H3080   1.082       .  S
C3074      C3075   1.434       .  A
C3075      C3076   1.403       .  A
C3075      C3082   1.527       .  S
C3076      C3077   1.397       .  A
C3076      H3081   1.083       .  S
C3077      C3078   1.411       .  A
C3078      C3079   1.516       .  S
C3079      F3083   1.385       .  S
C3079      F3084   1.382       .  S
C3079      F3085   1.383       .  S
C3082      F3086   1.383       .  S
C3082      F3087   1.383       .  S
C3082      F3088   1.385       .  S
