geometry optimzed in LAMMPS
_audit_creation_date              2020-12-01 
_audit_creation_method            'lammps2cif' 
_symmetry_space_group_name_H-M    'P1' 
_symmetry_Int_Tables_number       1 
_symmetry_cell_setting            triclinic 
loop_ 
_symmetry_equiv_pos_as_xyz 
  x,y,z 
_cell_length_a                    35.44559711 
_cell_length_b                    35.64541718619328 
_cell_length_c                    29.657629936944385 
_cell_angle_alpha                 90.44061608633 
_cell_angle_beta                  91.0764161225682 
_cell_angle_gamma                 90.72268808577176 
loop_ 
_atom_site_label 
_atom_site_type_symbol 
_atom_site_fract_x 
_atom_site_fract_y 
_atom_site_fract_z 
_atom_site_charge 
In1        In  0.15566872  0.63932038  0.31659200     1.36900
C2          C  0.16346002  0.57127153  0.28118643     0.79100
O3          O  0.14120512  0.66278769  0.38412459    -0.59400
O4          O  0.18355666  0.62151739  0.38142890    -0.50300
C5          C  0.20669260  0.68911811  0.28964382     0.71700
O6          O  0.21318153  0.65456925  0.29263246    -0.45100
C7          C  0.08474032  0.64866597  0.28903497     0.76500
O8          O  0.15864773  0.57714881  0.32257830    -0.57000
O9          O  0.09348576  0.63250345  0.32527778    -0.47100
O10         O  0.16477927  0.60058799  0.25777992    -0.53400
C11         C  0.16382504  0.64234942  0.40585721     0.86600
O12         O  0.17419724  0.69828645  0.30182288    -0.55300
O13         O  0.11247867  0.66092246  0.26741331    -0.58600
In14       In  0.15631435  0.62899412  0.68976483     1.36900
C15         C  0.08625520  0.63639534  0.72001519     0.79100
O16         O  0.14016982  0.65432660  0.62363803    -0.59400
O17         O  0.18324392  0.61365044  0.62411335    -0.50300
C18         C  0.20718845  0.68015305  0.71844074     0.71700
O19         O  0.17404410  0.68836932  0.70651563    -0.45100
C20         C  0.16525638  0.55937667  0.71937407     0.76500
O21         O  0.11531068  0.64406702  0.74354546    -0.57000
O22         O  0.15927703  0.56679832  0.67840850    -0.47100
O23         O  0.09302849  0.62605778  0.68027121    -0.53400
C24         C  0.16315834  0.63555088  0.60093445     0.86600
O25         O  0.21428908  0.64572201  0.71510356    -0.55300
O26         O  0.16772718  0.58771830  0.74493646    -0.58600
In27       In  0.36577896  0.84479311  0.19071728     1.36900
C28         C  0.43563656  0.83856394  0.22425239     0.79100
O29         O  0.38230001  0.81710372  0.12585546    -0.59400
O30         O  0.34050013  0.85901013  0.12327702    -0.50300
C31         C  0.31558442  0.79474744  0.21974726     0.71700
O32         O  0.35007582  0.78755968  0.21609166    -0.45100
C33         C  0.35493099  0.91530833  0.21678074     0.76500
O34         O  0.40707764  0.84059797  0.24868376    -0.57000
O35         O  0.36587837  0.90667163  0.17790722    -0.47100
O36         O  0.42838580  0.83940568  0.18253718    -0.53400
C37         C  0.36039087  0.83632075  0.10151154     0.86600
O38         O  0.30686735  0.82719810  0.20732862    -0.55300
O39         O  0.34921982  0.88766537  0.24203498    -0.58600
In40       In  0.36748388  0.84005268  0.81680179     1.36900
C41         C  0.35685977  0.90820611  0.78336361     0.79100
O42         O  0.34030938  0.85449195  0.88234267    -0.59400
O43         O  0.38571404  0.81652521  0.88368458    -0.50300
C44         C  0.31624680  0.78932378  0.78849940     0.71700
O45         O  0.34972174  0.78104832  0.79897451    -0.45100
C46         C  0.43757398  0.83123401  0.78745156     0.76500
O47         O  0.36420950  0.90276518  0.82451986    -0.57000
O48         O  0.43042026  0.84495702  0.82558901    -0.47100
O49         O  0.35457357  0.87870626  0.75986208    -0.53400
C50         C  0.36182874  0.83438190  0.90605912     0.86600
O51         O  0.30887491  0.82351184  0.79378482    -0.55300
O52         O  0.40871937  0.82167077  0.76449974    -0.58600
In53       In  0.66078552  0.84380775  0.31968144     1.36900
C54         C  0.58897905  0.83621086  0.29334509     0.79100
O55         O  0.64123030  0.81942255  0.38475386    -0.59400
O56         O  0.69109527  0.85253745  0.38672405    -0.50300
C57         C  0.70895230  0.79398975  0.28724198     0.71700
O58         O  0.71776102  0.82797747  0.29396012    -0.45100
C59         C  0.66932306  0.91268257  0.28569616     0.76500
O60         O  0.59933842  0.85540006  0.32737725    -0.57000
O61         O  0.66660023  0.88344522  0.26170591    -0.47100
O62         O  0.61551419  0.82003461  0.27356170    -0.53400
C63         C  0.66743438  0.83373684  0.40872656     0.86600
O64         O  0.67569382  0.78563437  0.29789748    -0.55300
O65         O  0.66952503  0.90647119  0.32751127    -0.58600
In66       In  0.66051322  0.83428750  0.69310704     1.36900
C67         C  0.66844536  0.90555394  0.72078729     0.79100
O68         O  0.68952670  0.84856255  0.62845856    -0.59400
O69         O  0.64271248  0.81105916  0.62565579    -0.50300
C70         C  0.70948993  0.78266024  0.72124466     0.71700
O71         O  0.71883730  0.81611738  0.71323218    -0.45100
C72         C  0.59042830  0.82518860  0.72277564     0.76500
O73         O  0.67763064  0.87828497  0.74529398    -0.57000
O74         O  0.59787253  0.82948119  0.68176640    -0.47100
O75         O  0.65624730  0.89605189  0.68218398    -0.53400
C76         C  0.66733335  0.82887811  0.60402059     0.86600
O77         O  0.67494203  0.77558619  0.71439570    -0.55300
O78         O  0.61916762  0.82412241  0.74843867    -0.58600
In79       In  0.86196855  0.63403958  0.19068070     1.36900
C80         C  0.85845060  0.56341988  0.21901584     0.79100
O81         O  0.83202372  0.61820016  0.12567165    -0.59400
O82         O  0.87577207  0.65932286  0.12481637    -0.50300
C83         C  0.81283539  0.68458420  0.21815662     0.71700
O84         O  0.80439456  0.65031201  0.21307485    -0.45100
C85         C  0.93151981  0.64646223  0.22158273     0.76500
O86         O  0.86809964  0.57223109  0.17977893    -0.57000
O87         O  0.92422015  0.63889846  0.18075520    -0.47100
O88         O  0.84920794  0.59083816  0.24333863    -0.53400
C89         C  0.85180841  0.64016467  0.10236469     0.86600
O90         O  0.84648342  0.69271417  0.20907487    -0.55300
O91         O  0.90301351  0.64881346  0.24613143    -0.58600
In92       In  0.86513797  0.62380834  0.82017099     1.36900
C93         C  0.93500920  0.63462383  0.79041339     0.79100
O94         O  0.88166377  0.64893516  0.88686453    -0.59400
O95         O  0.83424339  0.61221760  0.88428802    -0.50300
C96         C  0.81539969  0.67379326  0.79078333     0.71700
O97         O  0.84904512  0.68225602  0.80141750    -0.45100
C98         C  0.85787335  0.55349991  0.78942209     0.76500
O99         O  0.90592712  0.64278159  0.76761588    -0.57000
O100        O  0.86755173  0.56128238  0.82955670    -0.47100
O101        O  0.92819729  0.62206572  0.82909453    -0.53400
C102        C  0.85561613  0.63307795  0.90827484     0.86600
O103        O  0.80718916  0.63956148  0.79563324    -0.55300
O104        O  0.85057224  0.58179624  0.76578093    -0.58600
In105      In  0.15819730  0.35066791  0.17671262     1.36900
C106        C  0.16540553  0.42079664  0.20760709     0.79100
O107        O  0.18945650  0.35947076  0.11257784    -0.59400
O108        O  0.14231919  0.32247394  0.11094156    -0.50300
C109        C  0.20729191  0.30250163  0.21031710     0.71700
O110        O  0.21636772  0.33584446  0.20097954    -0.45100
C111        C  0.08850183  0.33882594  0.20468810     0.76500
O112        O  0.17201310  0.39244818  0.23137737    -0.57000
O113        O  0.09552296  0.35476525  0.16788680    -0.47100
O114        O  0.15612182  0.41321495  0.16729780    -0.53400
C115        C  0.16859082  0.33764738  0.08925912     0.86600
O116        O  0.17326132  0.29411873  0.20184378    -0.55300
O117        O  0.11731155  0.32867616  0.22665602    -0.58600
In118      In  0.16568267  0.33446633  0.80639750     1.36900
C119        C  0.09780909  0.32309175  0.76987220     0.79100
O120        O  0.19511592  0.34826835  0.87208682    -0.59400
O121        O  0.14878133  0.31021364  0.87274906    -0.50300
C122        C  0.21374610  0.28399724  0.77580880     0.71700
O123        O  0.17910452  0.27721304  0.78019630    -0.45100
C124        C  0.17011047  0.40631360  0.78231458     0.76500
O125        O  0.12631527  0.33069260  0.74676690    -0.57000
O126        O  0.15474847  0.39580604  0.81817686    -0.47100
O127        O  0.10443055  0.32023068  0.81161743    -0.53400
C128        C  0.17378808  0.32784480  0.89539330     0.86600
O129        O  0.22381987  0.31660881  0.78787713    -0.55300
O130        O  0.18447784  0.38007637  0.75997240    -0.58600
In131      In  0.36047727  0.14009514  0.30398266     1.36900
C132        C  0.42974825  0.14839596  0.27172213     0.79100
O133        O  0.37880139  0.16075309  0.37203195    -0.59400
O134        O  0.33191117  0.12326857  0.36773652    -0.50300
C135        C  0.31207435  0.19269903  0.27794422     0.71700
O136        O  0.34647672  0.19949009  0.28590052    -0.45100
C137        C  0.35140859  0.06934637  0.27688512     0.76500
O138        O  0.40078064  0.14420819  0.24683701    -0.57000
O139        O  0.36272169  0.07828638  0.31607887    -0.47100
O140        O  0.42308450  0.14976573  0.31327633    -0.53400
C141        C  0.35423602  0.14216526  0.39287580     0.86600
O142        O  0.30256310  0.15895254  0.28346230    -0.55300
O143        O  0.34389993  0.09678910  0.25184139    -0.58600
In144      In  0.36550902  0.12476168  0.67603251     1.36900
C145        C  0.35353234  0.05632278  0.70746482     0.79100
O146        O  0.34042685  0.10790109  0.60881893    -0.59400
O147        O  0.37954928  0.15332732  0.61166694    -0.50300
C148        C  0.31693945  0.17580048  0.70328944     0.71700
O149        O  0.30690516  0.14325002  0.69086608    -0.45100
C150        C  0.43577001  0.13281303  0.70816560     0.76500
O151        O  0.34478703  0.08551002  0.72882756    -0.57000
O152        O  0.42831654  0.12444323  0.66758493    -0.47100
O153        O  0.36729594  0.06230100  0.66926722    -0.53400
C154        C  0.35837739  0.13252291  0.58735337     0.86600
O155        O  0.35183442  0.18231328  0.70057148    -0.55300
O156        O  0.40718549  0.13743276  0.73206238    -0.58600
In157      In  0.65295645  0.13249706  0.17947318     1.36900
C158        C  0.58231052  0.14249456  0.20645090     0.79100
O159        O  0.63992888  0.16223444  0.11408657    -0.59400
O160        O  0.67747601  0.11669692  0.11293081    -0.50300
C161        C  0.70489638  0.18217709  0.20937658     0.71700
O162        O  0.67025726  0.18950066  0.20616284    -0.45100
C163        C  0.66213224  0.06297521  0.21194417     0.76500
O164        O  0.61078861  0.15163890  0.23037001    -0.57000
O165        O  0.67176310  0.09219395  0.23364668    -0.47100
O166        O  0.59023469  0.12873505  0.16860620    -0.53400
C167        C  0.66049481  0.14147645  0.09059935     0.86600
O168        O  0.71287840  0.14939318  0.19682251    -0.55300
O169        O  0.64825520  0.06947697  0.17341908    -0.58600
In170      In  0.66004936  0.13214318  0.80675797     1.36900
C171        C  0.66830254  0.06102555  0.77974968     0.79100
O172        O  0.68790375  0.12311306  0.87396166    -0.59400
O173        O  0.64102337  0.15922729  0.87122092    -0.50300
C174        C  0.71125727  0.18038224  0.77518168     0.71700
O175        O  0.67889247  0.19007630  0.78715755    -0.45100
C176        C  0.58903349  0.13849209  0.77767473     0.76500
O177        O  0.66984586  0.07088837  0.82063619    -0.57000
O178        O  0.59784301  0.12422362  0.81511624    -0.47100
O179        O  0.66361109  0.08782270  0.75287063    -0.53400
C180        C  0.66550075  0.14336435  0.89560409     0.86600
O181        O  0.71740869  0.14589512  0.77965532    -0.55300
O182        O  0.61673783  0.15043527  0.75563972    -0.58600
In183      In  0.86939903  0.33881443  0.30644756     1.36900
C184        C  0.86297413  0.40999830  0.28087414     0.79100
O185        O  0.84303737  0.35089926  0.37282124    -0.59400
O186        O  0.88788804  0.31211926  0.37100862    -0.50300
C187        C  0.81729246  0.28916388  0.27738715     0.71700
O188        O  0.80972316  0.32256918  0.28757353    -0.45100
C189        C  0.93782757  0.32994008  0.27356991     0.76500
O190        O  0.85365135  0.38255242  0.25592630    -0.57000
O191        O  0.93215031  0.33548234  0.31488009    -0.47100
O192        O  0.87459190  0.40098951  0.31966472    -0.53400
C193        C  0.86446986  0.32937052  0.39474179     0.86600
O194        O  0.85164496  0.28123955  0.28244338    -0.55300
O195        O  0.90826066  0.32753439  0.24939706    -0.58600
In196      In  0.87305914  0.33498242  0.67857757     1.36900
C197        C  0.94446133  0.32582925  0.70342030     0.79100
O198        O  0.89177606  0.31174914  0.61241742    -0.59400
O199        O  0.84368757  0.34624120  0.61243165    -0.50300
C200        C  0.82195305  0.28568654  0.70747785     0.71700
O201        O  0.85417678  0.27622859  0.69472043    -0.45100
C202        C  0.86447639  0.40320031  0.71439854     0.76500
O203        O  0.91746315  0.30957459  0.72273806    -0.57000
O204        O  0.86357050  0.39691158  0.67249337    -0.47100
O205        O  0.93464438  0.34662275  0.67118016    -0.53400
C206        C  0.86629812  0.32733476  0.58942598     0.86600
O207        O  0.81602074  0.32035824  0.70501460    -0.55300
O208        O  0.86945955  0.37432408  0.73791079    -0.58600
C209        C  0.83330859  0.34135764  0.46852844     0.25100
C210        C  0.86309237  0.32566103  0.44432613    -0.23000
C211        C  0.89252889  0.30803504  0.46822335     0.20000
C212        C  0.89302274  0.30763162  0.51533738     0.25000
C213        C  0.86398337  0.32468353  0.53961257    -0.23000
C214        C  0.83370128  0.34079816  0.51564274     0.19900
F215        F  0.80460966  0.35660759  0.53770174    -0.12900
F216        F  0.80386822  0.35770719  0.44669670    -0.15300
F217        F  0.92269054  0.29155969  0.53705568    -0.15300
F218        F  0.92169464  0.29231388  0.44618051    -0.12900
C219        C  0.75942738  0.27137881  0.74188839     0.25100
C220        C  0.79357596  0.25858397  0.72423211    -0.23000
C221        C  0.80033266  0.21974718  0.72316943     0.20000
C222        C  0.77357827  0.19433270  0.73951733     0.25000
C223        C  0.73952537  0.20718736  0.75745457    -0.23000
C224        C  0.73275664  0.24600964  0.75831578     0.19900
F225        F  0.70043403  0.25969191  0.77552967    -0.12900
F226        F  0.75181253  0.30859006  0.74378580    -0.15300
F227        F  0.78102153  0.15709323  0.73739348    -0.15300
F228        F  0.83278251  0.20616680  0.70614804    -0.12900
C229        C  0.72385004  0.24704249  0.23586017     0.25100
C230        C  0.73364541  0.20959778  0.22673755    -0.23000
C231        C  0.77115810  0.19854745  0.23486206     0.20000
C232        C  0.79817074  0.22425336  0.25165698     0.25000
C233        C  0.78842421  0.26172594  0.26053241    -0.23000
C234        C  0.75089266  0.27277537  0.25256835     0.19900
F235        F  0.74020907  0.30861894  0.26065274    -0.12900
F236        F  0.68810492  0.25905233  0.22828485    -0.15300
F237        F  0.83389137  0.21222781  0.25939824    -0.15300
F238        F  0.78184719  0.16269304  0.22694143    -0.12900
C239        C  0.64127462  0.16934985  0.96871332     0.25100
C240        C  0.66677710  0.14648330  0.94555098    -0.23000
C241        C  0.69192154  0.12431457  0.97078177     0.20000
C242        C  0.69042134  0.12353404  0.01778078     0.25000
C243        C  0.66388095  0.14505860  0.04096065    -0.23000
C244        C  0.63982179  0.16862495  0.01593066     0.19900
F245        F  0.61396514  0.19009836  0.03689052    -0.12900
F246        F  0.61708039  0.19182074  0.94574888    -0.15300
F247        F  0.71467946  0.10097787  0.04047088    -0.15300
F248        F  0.71741508  0.10229066  0.95001737    -0.12900
C249        C  0.48228147  0.13148072  0.77263995     0.25100
C250        C  0.47473066  0.13641926  0.72635012    -0.23000
C251        C  0.50484764  0.14406034  0.69749931     0.20000
C252        C  0.54187568  0.14625159  0.71448530     0.25000
C253        C  0.54962125  0.13985737  0.76050341    -0.23000
C254        C  0.51937275  0.13284682  0.78948570     0.19900
F255        F  0.52560489  0.12705895  0.83419869    -0.12900
F256        F  0.45389634  0.12400487  0.80148567    -0.15300
F257        F  0.57018640  0.15364192  0.68552005    -0.15300
F258        F  0.49849516  0.14954555  0.65275469    -0.12900
C259        C  0.53524485  0.16520073  0.26268383     0.25100
C260        C  0.54297763  0.14666068  0.22181551    -0.23000
C261        C  0.51271632  0.13084516  0.19638464     0.20000
C262        C  0.47585168  0.13255964  0.21206909     0.25000
C263        C  0.46833270  0.14984884  0.25363753    -0.23000
C264        C  0.49830895  0.16658737  0.27856807     0.19900
F265        F  0.49188280  0.18439706  0.31826911    -0.12900
F266        F  0.56341401  0.18183875  0.28757620    -0.15300
F267        F  0.44770673  0.11566107  0.18738047    -0.15300
F268        F  0.51878005  0.11258940  0.15689030    -0.12900
C269        C  0.37772584  0.16453549  0.46850084     0.25100
C270        C  0.35286932  0.14156069  0.44269725    -0.23000
C271        C  0.32851329  0.11665255  0.46504514     0.20000
C272        C  0.32974429  0.11414939  0.51211457     0.25000
C273        C  0.35546395  0.13638990  0.53776403    -0.23000
C274        C  0.37918151  0.16181034  0.51538387     0.19900
F275        F  0.40464494  0.18357496  0.53865856    -0.12900
F276        F  0.40126689  0.18937590  0.44841617    -0.15300
F277        F  0.30608834  0.08952808  0.53240800    -0.15300
F278        F  0.30406827  0.09396699  0.44145913    -0.12900
C279        C  0.05085202  0.33608646  0.70828900     0.25100
C280        C  0.05950064  0.31957585  0.75008212    -0.23000
C281        C  0.03055810  0.30222464  0.77438658     0.20000
C282        C  0.99327810  0.30322384  0.75852880     0.25000
C283        C  0.98423844  0.32161876  0.71798830    -0.23000
C284        C  0.01353871  0.33726391  0.69248409     0.19900
F285        F  0.00612487  0.35454621  0.65269736    -0.12900
F286        F  0.07819801  0.35269458  0.68359724    -0.15300
F287        F  0.96595843  0.28727856  0.78381458    -0.15300
F288        F  0.03822830  0.28468114  0.81393125    -0.12900
C289        C  0.22746361  0.21976268  0.74577724     0.25100
C290        C  0.24011533  0.25623229  0.75741184    -0.23000
C291        C  0.27809555  0.26613998  0.75040625     0.20000
C292        C  0.30284634  0.24021340  0.73213429     0.25000
C293        C  0.29026578  0.20371080  0.72068287    -0.23000
C294        C  0.25224177  0.19380833  0.72753292     0.19900
F295        F  0.23894656  0.15886118  0.71706040    -0.12900
F296        F  0.19110237  0.20893455  0.75223815    -0.15300
F297        F  0.33919634  0.25105194  0.72567120    -0.15300
F298        F  0.29146505  0.30100773  0.76109172    -0.12900
C299        C  0.04381569  0.32248074  0.26620636     0.25100
C300        C  0.04981414  0.33321479  0.22126781    -0.23000
C301        C  0.01843380  0.33987296  0.19284128     0.20000
C302        C  0.98189982  0.33727500  0.20943697     0.25000
C303        C  0.97601907  0.32820934  0.25484578    -0.23000
C304        C  0.00726119  0.32013278  0.28285522     0.19900
F305        F  0.00249981  0.31028263  0.32654560    -0.12900
F306        F  0.07331336  0.31537729  0.29463004    -0.15300
F307        F  0.95239789  0.34537969  0.18146742    -0.15300
F308        F  0.02301156  0.34952243  0.14906857    -0.12900
C309        C  0.22093140  0.24045946  0.24533627     0.25100
C310        C  0.23410585  0.27526155  0.22946889    -0.23000
C311        C  0.27303301  0.28342035  0.23169183     0.20000
C312        C  0.29835611  0.25685962  0.24819127     0.25000
C313        C  0.28524625  0.22162256  0.26280207    -0.23000
C314        C  0.24620812  0.21396246  0.26184089     0.19900
F315        F  0.23228037  0.18083599  0.27707085    -0.12900
F316        F  0.18347099  0.23193599  0.24510353    -0.15300
F317        F  0.33579266  0.26543402  0.24883516    -0.15300
F318        F  0.28681839  0.31679719  0.21704813    -0.12900
C319        C  0.15237546  0.30376044  0.01668519     0.25100
C320        C  0.17370701  0.33138630  0.04031363    -0.23000
C321        C  0.19877078  0.35428692  0.01622305     0.20000
C322        C  0.20025441  0.35168864  0.96926944     0.25000
C323        C  0.17661549  0.32624822  0.94527121    -0.23000
C324        C  0.15379410  0.30121441  0.96961874     0.19900
F325        F  0.13229683  0.27465244  0.94794593    -0.12900
F326        F  0.12966003  0.27948489  0.03896734    -0.15300
F327        F  0.22387392  0.37526420  0.94729279    -0.15300
F328        F  0.22090544  0.38035660  0.03781168    -0.12900
C329        C  0.86628067  0.44756430  0.78079908     0.25100
C330        C  0.86052994  0.44127843  0.73419688    -0.23000
C331        C  0.85175889  0.47197587  0.70650310     0.20000
C332        C  0.84980057  0.50818557  0.72468408     0.25000
C333        C  0.85662612  0.51466118  0.77104515    -0.23000
C334        C  0.86427826  0.48381931  0.79901450     0.19900
F335        F  0.87038554  0.48866324  0.84403432    -0.12900
F336        F  0.87469393  0.41878569  0.80882711    -0.15300
F337        F  0.84197912  0.53699794  0.69646944    -0.15300
F338        F  0.84538949  0.46717257  0.66152961    -0.12900
C339        C  0.85902930  0.49425059  0.20408193     0.25100
C340        C  0.85867475  0.52424585  0.23514632    -0.23000
C341        C  0.85983105  0.51640350  0.28162081     0.20000
C342        C  0.86130781  0.47928914  0.29661775     0.25000
C343        C  0.86109760  0.44930925  0.26545802    -0.19800
C344        C  0.85994894  0.45721435  0.21904592     0.19900
F345        F  0.86069805  0.42911290  0.18791923    -0.12900
F346        F  0.85835918  0.50065415  0.15900029    -0.15300
F347        F  0.86273696  0.47276225  0.34166865    -0.15300
F348        F  0.86054511  0.54464074  0.31263097    -0.12900
C349        C  0.82216162  0.62013285  0.02815816     0.25100
C350        C  0.84888532  0.64207713  0.05261469    -0.23000
C351        C  0.87503654  0.66396854  0.02884026     0.20000
C352        C  0.87638077  0.66179615  0.98196706     0.25000
C353        C  0.85133338  0.63801287  0.95754141    -0.23000
C354        C  0.82334406  0.61813424  0.98102040     0.19900
F355        F  0.79772108  0.59593352  0.95862324    -0.12900
F356        F  0.79540090  0.59987885  0.04977475    -0.15300
F357        F  0.90311853  0.68235438  0.96073907    -0.15300
F358        F  0.90041393  0.68666507  0.05092192    -0.12900
C359        C  0.67961698  0.99263232  0.79518151     0.25100
C360        C  0.67069046  0.02136657  0.76455531    -0.23000
C361        C  0.66251180  0.01165656  0.71930021     0.20000
C362        C  0.66258022  0.97420075  0.70516086     0.25000
C363        C  0.67078067  0.94534652  0.73583575    -0.23000
C364        C  0.67963998  0.95501343  0.78099977     0.19900
F365        F  0.68747869  0.92809330  0.81180799    -0.12900
F366        F  0.68798451  0.00078869  0.83907056    -0.15300
F367        F  0.65401993  0.96628488  0.66126317    -0.15300
F368        F  0.65340098  0.03830022  0.68863939    -0.12900
C369        C  0.77501287  0.76404565  0.74462486     0.25100
C370        C  0.73663667  0.75442234  0.73806253    -0.23000
C371        C  0.72440722  0.71788891  0.74892927     0.20000
C372        C  0.74982505  0.69185732  0.76661828     0.25000
C373        C  0.78814342  0.70160342  0.77336674    -0.23000
C374        C  0.80038064  0.73805471  0.76232010     0.19900
F375        F  0.83706723  0.74868786  0.76830294    -0.12900
F376        F  0.78826484  0.79865871  0.73378512    -0.15300
F377        F  0.73669058  0.65722502  0.77759675    -0.15300
F378        F  0.68777285  0.70720014  0.74263236    -0.12900
C379        C  0.67944789  0.98253993  0.29331748     0.25100
C380        C  0.67041016  0.95097156  0.26622899    -0.23000
C381        C  0.66018941  0.95651827  0.22065914     0.20000
C382        C  0.65788036  0.99274363  0.20299408     0.25000
C383        C  0.66618920  0.02442751  0.23027175    -0.23000
C384        C  0.67748804  0.01881553  0.27552731     0.19900
F385        F  0.68588464  0.04846509  0.30307738    -0.12900
F386        F  0.68999094  0.97842515  0.33723235    -0.15300
F387        F  0.64695501  0.99665059  0.15917546    -0.15300
F388        F  0.65118978  0.92690681  0.19326735    -0.12900
C389        C  0.77073016  0.77760478  0.25247180     0.25100
C390        C  0.73524390  0.76622793  0.26838830    -0.23000
C391        C  0.72501641  0.72794278  0.26593047     0.20000
C392        C  0.74993888  0.70159536  0.24882527     0.25000
C393        C  0.78578790  0.71281142  0.23407171    -0.23000
C394        C  0.79576326  0.75119256  0.23557910     0.19900
F395        F  0.82973918  0.76335843  0.22063538    -0.12900
F396        F  0.78131478  0.81435517  0.25299584    -0.15300
F397        F  0.73900025  0.66495303  0.24735580    -0.15300
F398        F  0.69100622  0.71569560  0.28060704    -0.12900
C399        C  0.63890764  0.81309781  0.48140872     0.25100
C400        C  0.66917494  0.82985060  0.45856074    -0.23000
C401        C  0.69994728  0.84454791  0.48408023     0.20000
C402        C  0.69974667  0.84373972  0.53132421     0.25000
C403        C  0.66903808  0.82773669  0.55407796    -0.23000
C404        C  0.63885621  0.81202214  0.52849473     0.19900
F405        F  0.60839687  0.79678905  0.54896304    -0.12900
F406        F  0.60853456  0.79866914  0.45835082    -0.15300
F407        F  0.72950417  0.85906913  0.55470337    -0.15300
F408        F  0.73011361  0.86016429  0.46343811    -0.12900
C409        C  0.48333149  0.82287031  0.72460309     0.25100
C410        C  0.47651069  0.82713885  0.77095910    -0.23000
C411        C  0.50739713  0.82836621  0.80144353     0.20000
C412        C  0.54431878  0.82621380  0.78592533     0.25000
C413        C  0.55126815  0.82328599  0.73946202    -0.23000
C414        C  0.52030499  0.82102275  0.70900766     0.19900
F415        F  0.52569344  0.81755684  0.66395803    -0.12900
F416        F  0.45430484  0.82183972  0.69405005    -0.15300
F417        F  0.57326841  0.82808866  0.81651980    -0.15300
F418        F  0.50195925  0.83181775  0.84646934    -0.12900
C419        C  0.34813323  0.97759948  0.79184378     0.25100
C420        C  0.35225588  0.94591918  0.76385504    -0.23000
C421        C  0.35333804  0.95074544  0.71682176     0.20000
C422        C  0.35219280  0.98660039  0.69833633     0.25000
C423        C  0.34975051  0.01836208  0.72643683    -0.23000
C424        C  0.34660037  0.01347349  0.77326817     0.19900
F425        F  0.34367891  0.04348698  0.80141543    -0.12900
F426        F  0.34620843  0.97403896  0.83729725    -0.15300
F427        F  0.35408319  0.99018879  0.65287850    -0.15300
F428        F  0.35699643  0.92089687  0.68859040    -0.12900
C429        C  0.48325849  0.85037971  0.28614619     0.25100
C430        C  0.47437610  0.83589562  0.24296340    -0.23000
C431        C  0.50298358  0.81951151  0.21753881     0.20000
C432        C  0.54001411  0.81839158  0.23452863     0.25000
C433        C  0.54923681  0.83405657  0.27714345    -0.23000
C434        C  0.52030155  0.84950572  0.30306081     0.19900
F435        F  0.52781383  0.86425926  0.34466324    -0.12900
F436        F  0.45636816  0.86673757  0.31141582    -0.15300
F437        F  0.56691398  0.80270570  0.20868637    -0.15300
F438        F  0.49509779  0.80435848  0.17622658    -0.12900
C439        C  0.34700775  0.96326801  0.27801605     0.25100
C440        C  0.35027447  0.95456895  0.23186529    -0.23000
C441        C  0.35084602  0.98395360  0.20047122     0.20000
C442        C  0.34987660  0.02128237  0.21502883     0.25000
C443        C  0.34850557  0.02998511  0.26128740    -0.23000
C444        C  0.34641176  0.00062613  0.29258893     0.19900
F445        F  0.34412322  0.00801982  0.33744180    -0.12900
F446        F  0.34560356  0.93572558  0.30934639    -0.15300
F447        F  0.35198337  0.04889014  0.18385422    -0.15300
F448        F  0.35286820  0.97667550  0.15558274    -0.12900
C449        C  0.33216133  0.85370513  0.02635319     0.25100
C450        C  0.35901937  0.83346817  0.05154354    -0.23000
C451        C  0.38566512  0.81203953  0.02834748     0.20000
C452        C  0.38613831  0.81173135  0.98115659     0.25000
C453        C  0.35982772  0.83270343  0.95598296    -0.23000
C454        C  0.33251485  0.85325519  0.97919564     0.19900
F455        F  0.30634742  0.87358537  0.95638949    -0.12900
F456        F  0.30571712  0.87447454  0.04725829    -0.15300
F457        F  0.41302471  0.79152637  0.96026703    -0.15300
F458        F  0.41212045  0.79211758  0.05122562    -0.12900
C459        C  0.04187961  0.63533432  0.78471670     0.25100
C460        C  0.04763955  0.63835903  0.73805562    -0.23000
C461        C  0.01612275  0.64193936  0.70895249     0.20000
C462        C  0.97958628  0.64221380  0.72612814     0.25000
C463        C  0.97375666  0.63810292  0.77271253    -0.23000
C464        C  0.00537141  0.63511300  0.80184082     0.19900
F465        F  0.00105798  0.63156796  0.84701035    -0.12900
F466        F  0.07153513  0.63096124  0.81377328    -0.15300
F467        F  0.94989536  0.64533428  0.69685716    -0.15300
F468        F  0.02059157  0.64503553  0.66375756    -0.12900
C469        C  0.18068001  0.49178336  0.70782476     0.25100
C470        C  0.16815857  0.52063233  0.73614586    -0.23000
C471        C  0.15693491  0.51189372  0.78008811     0.20000
C472        C  0.15769341  0.47483003  0.79524401     0.25000
C473        C  0.17037318  0.44583054  0.76698734    -0.23000
C474        C  0.18197203  0.45480546  0.72311246     0.19900
F475        F  0.19376612  0.42771152  0.69440404    -0.12900
F476        F  0.19196516  0.49939531  0.66531568    -0.15300
F477        F  0.14547453  0.46738606  0.83739517    -0.15300
F478        F  0.14378197  0.53902811  0.80786019    -0.12900
C479        C  0.27285164  0.69813972  0.74416759     0.25100
C480        C  0.23517768  0.70834661  0.73553083    -0.23000
C481        C  0.22442986  0.74556981  0.74426718     0.20000
C482        C  0.25065060  0.77182370  0.76163897     0.25000
C483        C  0.28823121  0.76145381  0.77075975    -0.23000
C484        C  0.29900661  0.72432056  0.76171168     0.19900
F485        F  0.33502972  0.71320278  0.76947923    -0.12900
F486        F  0.28466579  0.66279573  0.73536468    -0.15300
F487        F  0.23903305  0.80737240  0.76968426    -0.15300
F488        F  0.18839557  0.75665860  0.73647621    -0.12900
C489        C  0.00013126  0.65981945  0.21086790     0.25100
C490        C  0.97032925  0.65068476  0.23955552    -0.23000
C491        C  0.97819022  0.64335356  0.28523698     0.20000
C492        C  0.01533744  0.64374737  0.30161511     0.25000
C493        C  0.04534208  0.65174768  0.27266882    -0.23000
C494        C  0.03731966  0.66054907  0.22732469     0.19900
F495        F  0.06549508  0.66848212  0.19836423    -0.12900
F496        F  0.99334635  0.66771142  0.16675031    -0.15300
F497        F  0.02187709  0.63560295  0.34570260    -0.15300
F498        F  0.95008445  0.63398787  0.31371169    -0.12900
C499        C  0.16562533  0.49064837  0.19716621     0.25100
C500        C  0.16735744  0.45949322  0.22597561    -0.23000
C501        C  0.16953822  0.46561487  0.27290711     0.20000
C502        C  0.16916928  0.50196250  0.29065044     0.25000
C503        C  0.16648977  0.53308607  0.26194440    -0.23000
C504        C  0.16528981  0.52710075  0.21495966     0.19900
F505        F  0.16289279  0.55640990  0.18611201    -0.12900
F506        F  0.16394127  0.48594369  0.15169623    -0.15300
F507        F  0.17104984  0.50652496  0.33615249    -0.15300
F508        F  0.17088858  0.43640117  0.30198014    -0.12900
C509        C  0.22451057  0.75373316  0.26403605     0.25100
C510        C  0.23466093  0.71636226  0.27251727    -0.23000
C511        C  0.27165351  0.70499728  0.26339455     0.20000
C512        C  0.29794098  0.73042450  0.24631766     0.25000
C513        C  0.28775593  0.76772607  0.23762380    -0.23000
C514        C  0.25077572  0.77913591  0.24681567     0.19900
F515        F  0.23993407  0.81502506  0.23953322    -0.12900
F516        F  0.18900718  0.76577247  0.27183080    -0.15300
F517        F  0.33333147  0.71829981  0.23808988    -0.15300
F518        F  0.28258276  0.66918301  0.27094626    -0.12900
C519        C  0.14422152  0.66708488  0.48098559     0.25100
C520        C  0.16594356  0.64198983  0.45582455    -0.23000
C521        C  0.18802989  0.61544380  0.47895249     0.20000
C522        C  0.18796182  0.61383858  0.52615110     0.25000
C523        C  0.16554293  0.63852407  0.55119029    -0.23000
C524        C  0.14404355  0.66539506  0.52798266     0.19900
F525        F  0.12229777  0.68999115  0.55066072    -0.12900
F526        F  0.12245039  0.69307123  0.46018096    -0.15300
F527        F  0.20916384  0.58745757  0.54710715    -0.15300
F528        F  0.20890237  0.59023762  0.45598110    -0.12900
loop_ 
_geom_bond_atom_site_label_1 
_geom_bond_atom_site_label_2 
_geom_bond_distance 
_geom_bond_site_symmetry_2 
_ccdc_geom_bond_type 
In1           O3   2.236       .  S
In1           O4   2.245       .  S
In1          O12   2.243       .  S
In1           O6   2.234       .  S
In1           O8   2.228       .  S
In1           O9   2.234       .  S
In1          O10   2.247       .  S
In1          O13   2.242       .  S
C2            O8   1.259       .  A
C2           O10   1.260       .  A
C2          C503   1.478       .  S
O3           C11   1.262       .  A
O4           C11   1.261       .  A
C5           O12   1.260       .  A
C5            O6   1.259       .  A
C5          C510   1.479       .  S
C7            O9   1.259       .  A
C7           O13   1.259       .  A
C7          C493   1.475       .  S
C11         C520   1.483       .  S
In14         O16   2.233       .  S
In14         O17   2.251       .  S
In14         O25   2.247       .  S
In14         O19   2.249       .  S
In14         O21   2.245       .  S
In14         O22   2.244       .  S
In14         O23   2.257       .  S
In14         O26   2.243       .  S
C15          O21   1.259       .  A
C15          O23   1.261       .  A
C15         C460   1.481       .  S
O16          C24   1.262       .  A
O17          C24   1.262       .  A
C18          O25   1.259       .  A
C18          O19   1.259       .  A
C18         C480   1.483       .  S
C20          O22   1.260       .  A
C20          O26   1.260       .  A
C20         C470   1.476       .  S
C24         C523   1.484       .  S
In27         O29   2.246       .  S
In27         O30   2.241       .  S
In27         O38   2.238       .  S
In27         O32   2.247       .  S
In27         O34   2.244       .  S
In27         O35   2.241       .  S
In27         O36   2.247       .  S
In27         O39   2.240       .  S
C28          O34   1.258       .  A
C28          O36   1.260       .  A
C28         C430   1.476       .  S
O29          C37   1.262       .  A
O30          C37   1.261       .  A
C31          O38   1.257       .  A
C31          O32   1.259       .  A
C31         C513   1.478       .  S
C33          O35   1.261       .  A
C33          O39   1.259       .  A
C33         C440   1.478       .  S
C37         C450   1.484       .  S
In40         O42   2.245       .  S
In40         O43   2.246       .  S
In40         O51   2.245       .  S
In40         O45   2.244       .  S
In40         O47   2.250       .  S
In40         O48   2.246       .  S
In40         O49   2.232       .  S
In40         O52   2.251       .  S
C41          O47   1.260       .  A
C41          O49   1.258       .  A
C41         C420   1.477       .  S
O42          C50   1.262       .  A
O43          C50   1.261       .  A
C44          O51   1.259       .  A
C44          O45   1.260       .  A
C44         C483   1.482       .  S
C46          O48   1.260       .  A
C46          O52   1.260       .  A
C46         C410   1.481       .  S
C50         C453   1.485       .  S
In53         O55   2.241       .  S
In53         O56   2.260       .  S
In53         O64   2.240       .  S
In53         O58   2.249       .  S
In53         O60   2.238       .  S
In53         O61   2.245       .  S
In53         O62   2.243       .  S
In53         O65   2.261       .  S
C54          O60   1.261       .  A
C54          O62   1.261       .  A
C54         C433   1.481       .  S
O55          C63   1.259       .  A
O56          C63   1.262       .  A
C57          O64   1.259       .  A
C57          O58   1.261       .  A
C57         C390   1.481       .  S
C59          O61   1.259       .  A
C59          O65   1.261       .  A
C59         C380   1.486       .  S
C63         C400   1.486       .  S
In66         O68   2.251       .  S
In66         O69   2.236       .  S
In66         O77   2.252       .  S
In66         O71   2.246       .  S
In66         O73   2.264       .  S
In66         O74   2.244       .  S
In66         O75   2.234       .  S
In66         O78   2.249       .  S
C67          O73   1.261       .  A
C67          O75   1.259       .  A
C67         C363   1.485       .  S
O68          C76   1.262       .  A
O69          C76   1.261       .  A
C70          O77   1.260       .  A
C70          O71   1.259       .  A
C70         C370   1.484       .  S
C72          O74   1.259       .  A
C72          O78   1.261       .  A
C72         C413   1.483       .  S
C76         C403   1.484       .  S
In79         O81   2.248       .  S
In79         O82   2.218       .  S
In79         O90   2.235       .  S
In79         O84   2.240       .  S
In79         O86   2.238       .  S
In79         O87   2.236       .  S
In79         O88   2.250       .  S
In79         O91   2.231       .  S
C80          O86   1.260       .  A
C80          O88   1.261       .  A
C80         C340   1.480       .  S
O81          C89   1.263       .  A
O82          C89   1.260       .  A
C83          O90   1.258       .  A
C83          O84   1.261       .  A
C83         C393   1.479       .  S
C85          O87   1.260       .  A
C85          O91   1.260       .  A
C85         C490   1.471       .  S
C89         C350   1.479       .  S
In92         O94   2.230       .  S
In92         O95   2.250       .  S
In92        O103   2.246       .  S
In92         O97   2.239       .  S
In92         O99   2.248       .  S
In92        O100   2.251       .  S
In92        O101   2.248       .  S
In92        O104   2.241       .  S
C93          O99   1.260       .  A
C93         O101   1.261       .  A
C93         C463   1.484       .  S
O94         C102   1.261       .  A
O95         C102   1.261       .  A
C96         O103   1.261       .  A
C96          O97   1.260       .  A
C96         C373   1.482       .  S
C98         O100   1.260       .  A
C98         O104   1.260       .  A
C98         C333   1.484       .  S
C102        C353   1.481       .  S
In105       O107   2.241       .  S
In105       O108   2.246       .  S
In105       O116   2.222       .  S
In105       O110   2.242       .  S
In105       O112   2.236       .  S
In105       O113   2.239       .  S
In105       O114   2.251       .  S
In105       O117   2.231       .  S
C106        O112   1.258       .  A
C106        O114   1.260       .  A
C106        C500   1.479       .  S
O107        C115   1.260       .  A
O108        C115   1.260       .  A
C109        O116   1.259       .  A
C109        O110   1.262       .  A
C109        C310   1.477       .  S
C111        O113   1.262       .  A
C111        O117   1.259       .  A
C111        C300   1.477       .  S
C115        C320   1.482       .  S
In118       O120   2.241       .  S
In118       O121   2.244       .  S
In118       O129   2.241       .  S
In118       O123   2.238       .  S
In118       O125   2.234       .  S
In118       O126   2.251       .  S
In118       O127   2.232       .  S
In118       O130   2.242       .  S
C119        O125   1.259       .  A
C119        O127   1.261       .  A
C119        C280   1.473       .  S
O120        C128   1.262       .  A
O121        C128   1.260       .  A
C122        O129   1.259       .  A
C122        O123   1.258       .  A
C122        C290   1.478       .  S
C124        O126   1.261       .  A
C124        O130   1.260       .  A
C124        C473   1.483       .  S
C128        C323   1.482       .  S
In131       O133   2.226       .  S
In131       O134   2.244       .  S
In131       O142   2.243       .  S
In131       O136   2.247       .  S
In131       O138   2.241       .  S
In131       O139   2.237       .  S
In131       O140   2.253       .  S
In131       O143   2.242       .  S
C132        O138   1.260       .  A
C132        O140   1.260       .  A
C132        C263   1.479       .  S
O133        C141   1.261       .  A
O134        C141   1.262       .  A
C135        O142   1.258       .  A
C135        O136   1.258       .  A
C135        C313   1.478       .  S
C137        O139   1.260       .  A
C137        O143   1.261       .  A
C137        C443   1.476       .  S
C141        C270   1.480       .  S
In144       O146   2.242       .  S
In144       O147   2.232       .  S
In144       O155   2.233       .  S
In144       O149   2.238       .  S
In144       O151   2.236       .  S
In144       O152   2.245       .  S
In144       O153   2.236       .  S
In144       O156   2.242       .  S
C145        O151   1.259       .  A
C145        O153   1.260       .  A
C145        C423   1.475       .  S
O146        C154   1.261       .  A
O147        C154   1.261       .  A
C148        O155   1.260       .  A
C148        O149   1.260       .  A
C148        C293   1.478       .  S
C150        O152   1.260       .  A
C150        O156   1.259       .  A
C150        C250   1.477       .  S
C154        C273   1.480       .  S
In157       O159   2.260       .  S
In157       O160   2.242       .  S
In157       O168   2.250       .  S
In157       O162   2.249       .  S
In157       O164   2.252       .  S
In157       O165   2.260       .  S
In157       O166   2.243       .  S
In157       O169   2.256       .  S
C158        O164   1.261       .  A
C158        O166   1.259       .  A
C158        C260   1.484       .  S
O159        C167   1.261       .  A
O160        C167   1.260       .  A
C161        O168   1.261       .  A
C161        O162   1.260       .  A
C161        C230   1.485       .  S
C163        O165   1.260       .  A
C163        O169   1.260       .  A
C163        C383   1.489       .  S
C167        C243   1.486       .  S
In170       O172   2.235       .  S
In170       O173   2.254       .  S
In170       O181   2.250       .  S
In170       O175   2.246       .  S
In170       O177   2.255       .  S
In170       O178   2.238       .  S
In170       O179   2.245       .  S
In170       O182   2.244       .  S
C171        O177   1.260       .  A
C171        O179   1.259       .  A
C171        C360   1.484       .  S
O172        C180   1.261       .  A
O173        C180   1.261       .  A
C174        O181   1.259       .  A
C174        O175   1.259       .  A
C174        C223   1.482       .  S
C176        O178   1.261       .  A
C176        O182   1.261       .  A
C176        C253   1.479       .  S
C180        C240   1.484       .  S
In183       O185   2.236       .  S
In183       O186   2.236       .  S
In183       O194   2.246       .  S
In183       O188   2.246       .  S
In183       O190   2.239       .  S
In183       O191   2.238       .  S
In183       O192   2.252       .  S
In183       O195   2.239       .  S
C184        O190   1.259       .  A
C184        O192   1.260       .  A
C184        C343   1.479       .  S
O185        C193   1.262       .  A
O186        C193   1.261       .  A
C187        O194   1.260       .  A
C187        O188   1.260       .  A
C187        C233   1.484       .  S
C189        O191   1.260       .  A
C189        O195   1.260       .  A
C189        C303   1.475       .  S
C193        C210   1.479       .  S
In196       O198   2.239       .  S
In196       O199   2.245       .  S
In196       O207   2.239       .  S
In196       O201   2.248       .  S
In196       O203   2.234       .  S
In196       O204   2.245       .  S
In196       O205   2.232       .  S
In196       O208   2.248       .  S
C197        O203   1.262       .  A
C197        O205   1.261       .  A
C197        C283   1.477       .  S
O198        C206   1.259       .  A
O199        C206   1.261       .  A
C200        O207   1.259       .  A
C200        O201   1.259       .  A
C200        C220   1.481       .  S
C202        O204   1.261       .  A
C202        O208   1.260       .  A
C202        C330   1.484       .  S
C206        C213   1.480       .  S
C209        C210   1.407       .  A
C209        C214   1.397       .  A
C209        F216   1.358       .  S
C210        C211   1.408       .  A
C211        C212   1.397       .  A
C211        F218   1.358       .  S
C212        C213   1.409       .  A
C212        F217   1.358       .  S
C213        C214   1.407       .  A
C214        F215   1.358       .  S
C219        C220   1.408       .  A
C219        C224   1.397       .  A
C219        F226   1.358       .  S
C220        C221   1.408       .  A
C221        C222   1.399       .  A
C221        F228   1.358       .  S
C222        C223   1.409       .  A
C222        F227   1.358       .  S
C223        C224   1.408       .  A
C224        F225   1.358       .  S
C229        C230   1.409       .  A
C229        C234   1.400       .  A
C229        F236   1.358       .  S
C230        C231   1.408       .  A
C231        C232   1.399       .  A
C231        F238   1.358       .  S
C232        C233   1.408       .  A
C232        F237   1.358       .  S
C233        C234   1.408       .  A
C234        F235   1.358       .  S
C239        C240   1.409       .  A
C239        C244   1.403   1_556  A
C239        F246   1.358       .  S
C240        C241   1.407       .  A
C241        C242   1.396   1_556  A
C241        F248   1.358       .  S
C242        C243   1.407       .  A
C242        F247   1.357       .  S
C243        C244   1.410       .  A
C244        F245   1.358       .  S
C249        C250   1.407       .  A
C249        C254   1.398       .  A
C249        F256   1.358       .  S
C250        C251   1.406       .  A
C251        C252   1.398       .  A
C251        F258   1.358       .  S
C252        C253   1.408       .  A
C252        F257   1.358       .  S
C253        C254   1.408       .  A
C254        F255   1.358       .  S
C259        C260   1.409       .  A
C259        C264   1.401       .  A
C259        F266   1.358       .  S
C260        C261   1.409       .  A
C261        C262   1.397       .  A
C261        F268   1.358       .  S
C262        C263   1.406       .  A
C262        F267   1.358       .  S
C263        C264   1.407       .  A
C264        F265   1.358       .  S
C269        C270   1.407       .  A
C269        C274   1.395       .  A
C269        F276   1.358       .  S
C270        C271   1.409       .  A
C271        C272   1.399       .  A
C271        F278   1.358       .  S
C272        C273   1.409       .  A
C272        F277   1.358       .  S
C273        C274   1.407       .  A
C274        F275   1.358       .  S
C279        C280   1.406       .  A
C279        C284   1.396       .  A
C279        F286   1.358       .  S
C280        C281   1.405       .  A
C281        C282   1.395   1_455  A
C281        F288   1.358       .  S
C282        C283   1.408       .  A
C282        F287   1.358       .  S
C283        C284   1.408   1_655  A
C284        F285   1.358       .  S
C289        C290   1.408       .  A
C289        C294   1.397       .  A
C289        F296   1.358       .  S
C290        C291   1.407       .  A
C291        C292   1.396       .  A
C291        F298   1.358       .  S
C292        C293   1.407       .  A
C292        F297   1.358       .  S
C293        C294   1.408       .  A
C294        F295   1.358       .  S
C299        C300   1.409       .  A
C299        C304   1.397       .  A
C299        F306   1.358       .  S
C300        C301   1.407       .  A
C301        C302   1.396   1_455  A
C301        F308   1.358       .  S
C302        C303   1.406       .  A
C302        F307   1.358       .  S
C303        C304   1.406   1_655  A
C304        F305   1.358       .  S
C309        C310   1.408       .  A
C309        C314   1.395       .  A
C309        F316   1.358       .  S
C310        C311   1.407       .  A
C311        C312   1.398       .  A
C311        F318   1.358       .  S
C312        C313   1.408       .  A
C312        F317   1.358       .  S
C313        C314   1.407       .  A
C314        F315   1.358       .  S
C319        C320   1.408       .  A
C319        C324   1.400   1_554  A
C319        F326   1.358       .  S
C320        C321   1.407       .  A
C321        C322   1.397   1_554  A
C321        F328   1.357       .  S
C322        C323   1.407       .  A
C322        F327   1.358       .  S
C323        C324   1.409       .  A
C324        F325   1.358       .  S
C329        C330   1.409       .  A
C329        C334   1.400       .  A
C329        F336   1.358       .  S
C330        C331   1.408       .  A
C331        C332   1.398       .  A
C331        F338   1.358       .  S
C332        C333   1.408       .  A
C332        F337   1.358       .  S
C333        C334   1.408       .  A
C334        F335   1.358       .  S
C339        C340   1.406       .  A
C339        C344   1.397       .  A
C339        F346   1.358       .  S
C340        C341   1.408       .  A
C341        C342   1.400       .  A
C341        F348   1.358       .  S
C342        C343   1.407       .  A
C342        F347   1.358       .  S
C343        C344   1.407       .  A
C344        F345   1.358       .  S
C349        C350   1.408       .  A
C349        C354   1.401   1_554  A
C349        F356   1.358       .  S
C350        C351   1.407       .  A
C351        C352   1.393   1_554  A
C351        F358   1.358       .  S
C352        C353   1.407       .  A
C352        F357   1.358       .  S
C353        C354   1.410       .  A
C354        F355   1.358       .  S
C359        C360   1.409   1_565  A
C359        C364   1.402       .  A
C359        F366   1.358   1_565  S
C360        C361   1.407       .  A
C361        C362   1.396   1_545  A
C361        F368   1.358       .  S
C362        C363   1.408       .  A
C362        F367   1.358       .  S
C363        C364   1.409       .  A
C364        F365   1.358       .  S
C369        C370   1.408       .  A
C369        C374   1.398       .  A
C369        F376   1.358       .  S
C370        C371   1.409       .  A
C371        C372   1.400       .  A
C371        F378   1.358       .  S
C372        C373   1.408       .  A
C372        F377   1.358       .  S
C373        C374   1.408       .  A
C374        F375   1.358       .  S
C379        C380   1.408       .  A
C379        C384   1.402   1_565  A
C379        F386   1.358       .  S
C380        C381   1.409       .  A
C381        C382   1.400       .  A
C381        F388   1.358       .  S
C382        C383   1.409   1_565  A
C382        F387   1.358       .  S
C383        C384   1.410       .  A
C384        F385   1.357       .  S
C389        C390   1.408       .  A
C389        C394   1.398       .  A
C389        F396   1.358       .  S
C390        C391   1.409       .  A
C391        C392   1.396       .  A
C391        F398   1.357       .  S
C392        C393   1.406       .  A
C392        F397   1.358       .  S
C393        C394   1.409       .  A
C394        F395   1.358       .  S
C399        C400   1.409       .  A
C399        C404   1.397       .  A
C399        F406   1.358       .  S
C400        C401   1.409       .  A
C401        C402   1.402       .  A
C401        F408   1.357       .  S
C402        C403   1.408       .  A
C402        F407   1.358       .  S
C403        C404   1.408       .  A
C404        F405   1.358       .  S
C409        C410   1.408       .  A
C409        C414   1.400       .  A
C409        F416   1.358       .  S
C410        C411   1.407       .  A
C411        C412   1.398       .  A
C411        F418   1.358       .  S
C412        C413   1.408       .  A
C412        F417   1.358       .  S
C413        C414   1.409       .  A
C414        F415   1.358       .  S
C419        C420   1.407       .  A
C419        C424   1.398   1_565  A
C419        F426   1.358       .  S
C420        C421   1.408       .  A
C421        C422   1.395       .  A
C421        F428   1.358       .  S
C422        C423   1.405   1_565  A
C422        F427   1.358       .  S
C423        C424   1.407       .  A
C424        F425   1.358       .  S
C429        C430   1.406       .  A
C429        C434   1.398       .  A
C429        F436   1.358       .  S
C430        C431   1.405       .  A
C431        C432   1.398       .  A
C431        F438   1.358       .  S
C432        C433   1.409       .  A
C432        F437   1.358       .  S
C433        C434   1.408       .  A
C434        F435   1.358       .  S
C439        C440   1.408       .  A
C439        C444   1.397   1_565  A
C439        F446   1.358       .  S
C440        C441   1.407       .  A
C441        C442   1.397   1_565  A
C441        F448   1.358       .  S
C442        C443   1.406       .  A
C442        F447   1.358       .  S
C443        C444   1.406       .  A
C444        F445   1.358       .  S
C449        C450   1.408       .  A
C449        C454   1.399   1_554  A
C449        F456   1.358       .  S
C450        C451   1.408       .  A
C451        C452   1.400   1_554  A
C451        F458   1.358       .  S
C452        C453   1.409       .  A
C452        F457   1.358       .  S
C453        C454   1.408       .  A
C454        F455   1.358       .  S
C459        C460   1.407       .  A
C459        C464   1.399       .  A
C459        F466   1.358       .  S
C460        C461   1.407       .  A
C461        C462   1.401   1_455  A
C461        F468   1.358       .  S
C462        C463   1.409       .  A
C462        F467   1.358       .  S
C463        C464   1.408   1_655  A
C464        F465   1.358       .  S
C469        C470   1.404       .  A
C469        C474   1.398       .  A
C469        F476   1.358       .  S
C470        C471   1.406       .  A
C471        C472   1.399       .  A
C471        F478   1.358       .  S
C472        C473   1.409       .  A
C472        F477   1.358       .  S
C473        C474   1.410       .  A
C474        F475   1.358       .  S
C479        C480   1.408       .  A
C479        C484   1.398       .  A
C479        F486   1.358       .  S
C480        C481   1.409       .  A
C481        C482   1.399       .  A
C481        F488   1.358       .  S
C482        C483   1.409       .  A
C482        F487   1.358       .  S
C483        C484   1.407       .  A
C484        F485   1.358       .  S
C489        C490   1.405   1_455  A
C489        C494   1.397       .  A
C489        F496   1.358   1_455  S
C490        C491   1.405       .  A
C491        C492   1.395   1_655  A
C491        F498   1.358       .  S
C492        C493   1.407       .  A
C492        F497   1.358       .  S
C493        C494   1.408       .  A
C494        F495   1.358       .  S
C499        C500   1.408       .  A
C499        C504   1.399       .  A
C499        F506   1.358       .  S
C500        C501   1.408       .  A
C501        C502   1.395       .  A
C501        F508   1.358       .  S
C502        C503   1.407       .  A
C502        F507   1.358       .  S
C503        C504   1.408       .  A
C504        F505   1.358       .  S
C509        C510   1.407       .  A
C509        C514   1.397       .  A
C509        F516   1.358       .  S
C510        C511   1.408       .  A
C511        C512   1.396       .  A
C511        F518   1.358       .  S
C512        C513   1.407       .  A
C512        F517   1.358       .  S
C513        C514   1.408       .  A
C514        F515   1.358       .  S
C519        C520   1.407       .  A
C519        C524   1.396       .  A
C519        F526   1.358       .  S
C520        C521   1.410       .  A
C521        C522   1.401       .  A
C521        F528   1.358       .  S
C522        C523   1.410       .  A
C522        F527   1.358       .  S
C523        C524   1.407       .  A
C524        F525   1.357       .  S
