geometry optimzed in LAMMPS
_audit_creation_date              2020-12-01 
_audit_creation_method            'lammps2cif' 
_symmetry_space_group_name_H-M    'P1' 
_symmetry_Int_Tables_number       1 
_symmetry_cell_setting            triclinic 
loop_ 
_symmetry_equiv_pos_as_xyz 
  x,y,z 
_cell_length_a                    35.49371044 
_cell_length_b                    36.70191999816693 
_cell_length_c                    38.782987201689515 
_cell_angle_alpha                 89.97830743489004 
_cell_angle_beta                  90.65289464838604 
_cell_angle_gamma                 89.56953888627133 
loop_ 
_atom_site_label 
_atom_site_type_symbol 
_atom_site_fract_x 
_atom_site_fract_y 
_atom_site_fract_z 
_atom_site_charge 
O1          O  0.05361391  0.00898173  0.44405783    -0.81800
O2          O  0.44805940  0.49264878  0.45258107    -0.81800
O3          O  0.01172841  0.43656543  0.46425241    -0.81800
O4          O  0.46758502  0.08862552  0.48766644    -0.81800
O5          O  0.45303835  0.42247801  0.47650655    -0.81900
O6          O  0.00223631  0.06475818  0.44666225    -0.81800
O7          O  0.41959286  0.03156006  0.48749906    -0.81800
O8          O  0.07790333  0.47134402  0.48120075    -0.81900
C9          C  0.07964576  0.48710509  0.45240879     1.07900
C10         C  0.42053204  0.51370520  0.45920104     1.07800
C11         C  0.48277145  0.41551207  0.46014563     1.07900
C12         C  0.48007920  0.08939176  0.45697112     1.07800
O13         O  0.03374213  0.08833753  0.01228498    -0.81800
O14         O  0.49055322  0.43677132  0.03563580    -0.81900
O15         O  0.05409805  0.49192236  0.04737091    -0.81800
O16         O  0.44828274  0.00940036  0.05598179    -0.81800
O17         O  0.42430992  0.47206704  0.01875347    -0.81900
O18         O  0.08211312  0.03086491  0.01253230    -0.81800
O19         O  0.49928092  0.06468819  0.05328879    -0.81800
O20         O  0.04926410  0.42180196  0.02337080    -0.81900
Co21       Co  0.04045449  0.04593264  0.47927667     1.51500
Co22       Co  0.47186156  0.46731193  0.99219993     1.51700
Co23       Co  0.03034020  0.46692280  0.50770983     1.51600
Co24       Co  0.46118881  0.04624120  0.02071119     1.51500
O25         O  0.00096396  0.01306548  0.50001316    -1.43800
C26         C  0.02123824  0.08916323  0.04297416     1.07800
C27         C  0.51948888  0.41528563  0.03970300     1.07900
C28         C  0.08136924  0.01292477  0.04080236     1.07800
C29         C  0.42249938  0.48765094  0.04762599     1.07800
C30         C  0.01663916  0.28495228  0.12310228     0.78500
N31         N  0.01053691  0.28493410  0.15763639    -0.79800
C32         C  0.01082031  0.25303502  0.17565431     0.81000
N33         N  0.01669208  0.22107741  0.15857630    -0.79700
C34         C  0.02283961  0.22082269  0.12402265     0.81100
N35         N  0.02295213  0.25289371  0.10664636    -0.81400
C36         C  0.98504151  0.28510571  0.37674246     0.78500
N37         N  0.97830181  0.25319946  0.39319426    -0.79800
C38         C  0.97813629  0.22112491  0.37581405     0.81000
N39         N  0.98432530  0.22127374  0.34125997    -0.79700
C40         C  0.99063495  0.25309247  0.32419685     0.81100
N41         N  0.99129133  0.28495021  0.34223814    -0.81400
C42         C  0.21774609  0.99861262  0.12257135     0.78500
N43         N  0.21771586  0.99740840  0.15758508    -0.79800
C44         C  0.25055787  0.99329531  0.17563832     0.81000
N45         N  0.28345681  0.99014217  0.15835729    -0.79700
C46         C  0.28386040  0.99073592  0.12342840     0.81100
N47         N  0.25092937  0.99513451  0.10565210    -0.81400
C48         C  0.21839808  0.49077232  0.37686428     0.78500
N49         N  0.21884217  0.49010550  0.34193319    -0.79800
C50         C  0.25167964  0.49341639  0.32465492     0.81000
N51         N  0.28440817  0.49774840  0.34271301    -0.79700
C52         C  0.28433309  0.49901426  0.37771977     0.81100
N53         N  0.25122363  0.49539082  0.39464614    -0.81400
C54         C  0.28508971  0.49318014  0.23230032    -0.15000
C55         C  0.25079909  0.49288447  0.21376035     0.07100
C56         C  0.21686411  0.99247435  0.23200664    -0.15000
C57         C  0.21720623  0.99241816  0.26798568    -0.15000
C58         C  0.25149326  0.49293968  0.28653083     0.07100
C59         C  0.28542925  0.49329208  0.26828354    -0.15000
H60         H  0.31177429  0.49357882  0.21905115     0.11100
H61         H  0.18997942  0.99216646  0.21852992     0.11100
H62         H  0.19051429  0.99220001  0.28122671     0.11100
H63         H  0.31231397  0.49364432  0.28175942     0.11100
C64         C  0.50095150  0.22022431  0.23174767    -0.15000
C65         C  0.00541489  0.25309253  0.21363332     0.07100
C66         C  0.00518088  0.28595823  0.23227799    -0.15000
C67         C  0.00067329  0.28594984  0.26809146    -0.15000
C68         C  0.99609777  0.25308376  0.28620384     0.07100
C69         C  0.49625881  0.22022503  0.26753057    -0.15000
H70         H  0.50093743  0.19438479  0.21827994     0.11100
H71         H  0.00871224  0.31178634  0.21924956     0.11100
H72         H  0.00066102  0.31179705  0.28154111     0.11100
H73         H  0.49275841  0.19437748  0.28053131     0.11100
C74         C  0.98258854  0.12074130  0.39949579    -0.15000
C75         C  0.97302792  0.12158294  0.43460524     0.07100
C76         C  0.46134811  0.15480014  0.44909338    -0.15000
C77         C  0.46159762  0.18685146  0.42956322    -0.15000
C78         C  0.97318383  0.18641006  0.39496318     0.07100
C79         C  0.98245184  0.15276494  0.37983215    -0.15000
H80         H  0.99160306  0.09552465  0.38754612     0.11100
H81         H  0.45396472  0.15642711  0.47607332     0.11100
H82         H  0.45386802  0.21220718  0.44197684     0.11100
H83         H  0.99130766  0.15136970  0.35323481     0.11100
C84         C  0.45938330  0.32297916  0.42409552    -0.15000
C85         C  0.98435673  0.31950297  0.39654900     0.07100
C86         C  0.00883571  0.34842117  0.38920386    -0.15000
C87         C  0.00882481  0.37995835  0.40979547    -0.15000
C88         C  0.98352230  0.38330001  0.43725284     0.07100
C89         C  0.45866912  0.35458517  0.44390562    -0.15000
H90         H  0.44015765  0.30119791  0.43026685     0.11100
H91         H  0.02853405  0.34622041  0.36817307     0.11100
H92         H  0.02832791  0.40167357  0.40421200     0.11100
H93         H  0.43907454  0.35617794  0.46507574     0.11100
C94         C  0.51796299  0.12060725  0.10031749    -0.15000
C95         C  0.02803436  0.12125823  0.06533265     0.07100
C96         C  0.04002468  0.15424505  0.05092644    -0.15000
C97         C  0.03965530  0.18629654  0.07041678    -0.15000
C98         C  0.02764280  0.18605997  0.10488991     0.07100
C99         C  0.51797467  0.15262120  0.11994108    -0.15000
H100        H  0.50867771  0.09556963  0.11219557     0.11100
H101        H  0.04780024  0.15571693  0.02403902     0.11100
H102        H  0.04769528  0.21149984  0.05808276     0.11100
H103        H  0.50876792  0.15140746  0.14643860     0.11100
C104        C  0.04207586  0.35325179  0.05483230    -0.15000
C105        C  0.01856571  0.38304190  0.06247381     0.07100
C106        C  0.49441672  0.38080640  0.09084887    -0.15000
C107        C  0.49430784  0.34927606  0.11145109    -0.15000
C108        C  0.01748534  0.31930076  0.10321053     0.07100
C109        C  0.04123450  0.32167976  0.07467668    -0.15000
H110        H  0.06069461  0.35403432  0.03290448     0.11100
H111        H  0.47595181  0.40340121  0.09716789     0.11100
H112        H  0.47554168  0.34795464  0.13323052     0.11100
H113        H  0.05943573  0.29907614  0.06775688     0.11100
C114        C  0.35184245  0.52507855  0.44956345    -0.15000
C115        C  0.38675684  0.51365535  0.43645079     0.07100
C116        C  0.38797251  0.49872891  0.40310243    -0.15000
C117        C  0.35481062  0.49478304  0.38354947    -0.15000
C118        C  0.31978059  0.50493499  0.39731331     0.07100
C119        C  0.31873370  0.52047896  0.43035044    -0.15000
H120        H  0.34984022  0.53630543  0.47530825     0.11100
H121        H  0.41442676  0.48948012  0.39241741     0.11100
H122        H  0.35643534  0.48273659  0.35811580     0.11100
H123        H  0.29221791  0.52889505  0.44149597     0.11100
C124        C  0.14809277  0.47287731  0.44730782    -0.15000
C125        C  0.11404786  0.48403008  0.43154366     0.07100
C126        C  0.11430022  0.49576631  0.39710128    -0.15000
C127        C  0.14812294  0.49696464  0.37897980    -0.15000
C128        C  0.18237148  0.48724216  0.39524925     0.07100
C129        C  0.18195271  0.47480473  0.42945508    -0.15000
H130        H  0.14881326  0.96408907  0.47397885     0.11100
H131        H  0.08849058  0.50468172  0.38442958     0.11100
H132        H  0.14762892  0.50667336  0.35260177     0.11100
H133        H  0.20785970  0.46685801  0.44253056     0.11100
C134        C  0.35443544  0.97286984  0.05302469    -0.15000
C135        C  0.38824263  0.48445974  0.06861508     0.07100
C136        C  0.38778715  0.49644885  0.10297263    -0.15000
C137        C  0.35397909  0.49749424  0.12115638    -0.15700
C138        C  0.31993456  0.98735640  0.10502798     0.07100
C139        C  0.32058171  0.97464127  0.07093096    -0.15000
H140        H  0.35385202  0.96384398  0.02643324     0.11100
H141        H  0.41339934  0.50568797  0.11552014     0.11100
H142        H  0.35428366  0.50741338  0.14745613     0.11100
H143        H  0.29484665  0.96635632  0.05797827     0.11100
C144        C  0.11408837  0.99805749  0.09704487    -0.15000
C145        C  0.11512200  0.01282276  0.06361400     0.07100
C146        C  0.14988367  0.02419208  0.05050802    -0.15000
C147        C  0.18302536  0.01972864  0.06980106    -0.15000
C148        C  0.18218689  0.00437218  0.10292912     0.07100
C149        C  0.14729001  0.99425475  0.11668950    -0.15000
H150        H  0.08775671  0.98886481  0.10773715     0.11100
H151        H  0.15176350  0.03530239  0.02471199     0.11100
H152        H  0.20942200  0.52812294  0.05864311     0.11100
H153        H  0.14581873  0.98235673  0.14219419     0.11100
O154        O  0.05361393  0.00898172  0.94405777    -0.81800
O155        O  0.44805952  0.49264888  0.95258105    -0.81800
O156        O  0.01172833  0.43656541  0.96425234    -0.81800
O157        O  0.46758497  0.08862550  0.98766637    -0.81800
O158        O  0.45303843  0.42247795  0.97650663    -0.81900
O159        O  0.00223628  0.06475823  0.94666217    -0.81800
O160        O  0.41959295  0.03156004  0.98749904    -0.81800
O161        O  0.07790342  0.47134396  0.98120072    -0.81900
C162        C  0.07964581  0.48710506  0.95240877     1.07900
C163        C  0.42053209  0.51370525  0.95920099     1.07800
C164        C  0.48277148  0.41551203  0.96014563     1.07900
C165        C  0.48007923  0.08939181  0.95697106     1.07800
O166        O  0.03374219  0.08833748  0.51228505    -0.81800
O167        O  0.49055311  0.43677132  0.53563577    -0.81900
O168        O  0.05409797  0.49192244  0.54737094    -0.81800
O169        O  0.44828271  0.00940040  0.55598182    -0.81800
O170        O  0.42430988  0.47206699  0.51875348    -0.81900
O171        O  0.08211317  0.03086488  0.51253227    -0.81800
O172        O  0.49928083  0.06468819  0.55328880    -0.81800
O173        O  0.04926420  0.42180203  0.52337079    -0.81900
Co174      Co  0.04045449  0.04593268  0.97927661     1.51500
Co175      Co  0.47186149  0.46731194  0.49219992     1.51700
Co176      Co  0.03034025  0.46692273  0.00770977     1.51600
Co177      Co  0.46118878  0.04624120  0.52071119     1.51500
O178        O  0.00096400  0.01306556  0.00001318    -1.43800
C179        C  0.02123827  0.08916319  0.54297420     1.07800
C180        C  0.51948877  0.41528561  0.53970296     1.07900
C181        C  0.08136931  0.01292471  0.54080229     1.07800
C182        C  0.42249937  0.48765094  0.54762597     1.07800
C183        C  0.01663917  0.28495224  0.62310225     0.78500
N184        N  0.01053679  0.28493408  0.65763635    -0.79800
C185        C  0.01082017  0.25303501  0.67565427     0.81000
N186        N  0.01669197  0.22107738  0.65857630    -0.79700
C187        C  0.02283968  0.22082265  0.62402267     0.81100
N188        N  0.02295229  0.25289367  0.60664639    -0.81400
C189        C  0.98504143  0.28510575  0.87674241     0.78500
N190        N  0.97830165  0.25319953  0.89319421    -0.79800
C191        C  0.97813619  0.22112495  0.87581404     0.81000
N192        N  0.98432516  0.22127376  0.84125995    -0.79700
C193        C  0.99063490  0.25309246  0.82419683     0.81100
N194        N  0.99129139  0.28495020  0.84223809    -0.81400
C195        C  0.21774607  0.99861260  0.62257135     0.78500
N196        N  0.21771585  0.99740834  0.65758508    -0.79800
C197        C  0.25055787  0.99329526  0.67563832     0.81000
N198        N  0.28345678  0.99014213  0.65835729    -0.79700
C199        C  0.28386039  0.99073588  0.62342841     0.81100
N200        N  0.25092934  0.99513446  0.60565209    -0.81400
C201        C  0.21839810  0.49077236  0.87686432     0.78500
N202        N  0.21884216  0.49010551  0.84193321    -0.79800
C203        C  0.25167962  0.49341638  0.82465493     0.81000
N204        N  0.28440815  0.49774843  0.84271300    -0.79700
C205        C  0.28433310  0.49901436  0.87771978     0.81100
N206        N  0.25122365  0.49539086  0.89464616    -0.81400
C207        C  0.28508973  0.49318007  0.73230035    -0.15000
C208        C  0.25079915  0.49288441  0.71376033     0.07100
C209        C  0.21686416  0.99247429  0.73200666    -0.15000
C210        C  0.21720624  0.99241810  0.76798572    -0.15000
C211        C  0.25149319  0.49293974  0.78653082     0.07100
C212        C  0.28542919  0.49329207  0.76828356    -0.15000
H213        H  0.31177437  0.49357873  0.71905119     0.11100
H214        H  0.18997946  0.99216640  0.71852992     0.11100
H215        H  0.19051437  0.99219996  0.78122669     0.11100
H216        H  0.31231391  0.49364424  0.78175947     0.11100
C217        C  0.50095150  0.22022428  0.73174764    -0.15000
C218        C  0.00541490  0.25309250  0.71363328     0.07100
C219        C  0.00518098  0.28595816  0.73227796    -0.15000
C220        C  0.00067342  0.28594978  0.76809143    -0.15000
C221        C  0.99609787  0.25308369  0.78620382     0.07100
C222        C  0.49625872  0.22022507  0.76753051    -0.15000
H223        H  0.50093757  0.19438476  0.71827994     0.11100
H224        H  0.00871229  0.31178632  0.71924949     0.11100
H225        H  0.00066110  0.31179699  0.78154107     0.11100
H226        H  0.49275833  0.19437741  0.78053131     0.11100
C227        C  0.98258859  0.12074132  0.89949576    -0.15000
C228        C  0.97302782  0.12158295  0.93460518     0.07100
C229        C  0.46134817  0.15480023  0.94909334    -0.15000
C230        C  0.46159751  0.18685155  0.92956317    -0.15000
C231        C  0.97318391  0.18641009  0.89496316     0.07100
C232        C  0.98245193  0.15276496  0.87983212    -0.15000
H233        H  0.99160313  0.09552467  0.88754612     0.11100
H234        H  0.45396482  0.15642723  0.97607331     0.11100
H235        H  0.45386789  0.21220720  0.94197670     0.11100
H236        H  0.99130771  0.15136968  0.85323478     0.11100
C237        C  0.45938331  0.32297920  0.92409555    -0.15000
C238        C  0.98435678  0.31950301  0.89654899     0.07100
C239        C  0.00883576  0.34842124  0.88920388    -0.15000
C240        C  0.00882486  0.37995836  0.90979556    -0.15000
C241        C  0.98352221  0.38330003  0.93725283     0.07100
C242        C  0.45866915  0.35458520  0.94390564    -0.15000
H243        H  0.44015765  0.30119793  0.93026686     0.11100
H244        H  0.02853405  0.34622058  0.86817304     0.11100
H245        H  0.02832799  0.40167359  0.90421216     0.11100
H246        H  0.43907451  0.35617801  0.96507581     0.11100
C247        C  0.51796289  0.12060720  0.60031750    -0.15000
C248        C  0.02803442  0.12125819  0.56533268     0.07100
C249        C  0.04002479  0.15424499  0.55092644    -0.15000
C250        C  0.03965541  0.18629648  0.57041681    -0.15000
C251        C  0.02764295  0.18605991  0.60488996     0.07100
C252        C  0.51797459  0.15262115  0.61994112    -0.15000
H253        H  0.50867758  0.09556961  0.61219555     0.11100
H254        H  0.04780033  0.15571687  0.52403906     0.11100
H255        H  0.04769535  0.21149978  0.55808280     0.11100
H256        H  0.50876779  0.15140742  0.64643854     0.11100
C257        C  0.04207585  0.35325170  0.55483223    -0.15000
C258        C  0.01856579  0.38304187  0.56247376     0.07100
C259        C  0.49441660  0.38080631  0.59084877    -0.15000
C260        C  0.49430775  0.34927598  0.61145104    -0.15000
C261        C  0.01748533  0.31930071  0.60321049     0.07100
C262        C  0.04123456  0.32167971  0.57467670    -0.15000
H263        H  0.06069453  0.35403415  0.53290435     0.11100
H264        H  0.47595166  0.40340110  0.59716780     0.11100
H265        H  0.47554159  0.34795455  0.63323039     0.11100
H266        H  0.05943581  0.29907614  0.56775698     0.11100
C267        C  0.35184252  0.52507851  0.94956346    -0.15000
C268        C  0.38675688  0.51365533  0.93645075     0.07100
C269        C  0.38797255  0.49872892  0.90310239    -0.15000
C270        C  0.35481063  0.49478323  0.88354943    -0.15000
C271        C  0.31978061  0.50493511  0.89731332     0.07100
C272        C  0.31873368  0.52047892  0.93035056    -0.15000
H273        H  0.34984037  0.53630539  0.97530829     0.11100
H274        H  0.41442676  0.48948008  0.89241734     0.11100
H275        H  0.35643529  0.48273691  0.85811572     0.11100
H276        H  0.29221803  0.52889492  0.94149615     0.11100
C277        C  0.14809273  0.47287726  0.94730783    -0.15000
C278        C  0.11404787  0.48403002  0.93154361     0.07100
C279        C  0.11430027  0.49576624  0.89710123    -0.15000
C280        C  0.14812300  0.49696460  0.87897980    -0.15000
C281        C  0.18237150  0.48724212  0.89524928     0.07100
C282        C  0.18195266  0.47480466  0.92945509    -0.15000
H283        H  0.14881322  0.96408902  0.97397879     0.11100
H284        H  0.08849064  0.50468171  0.88442951     0.11100
H285        H  0.14762905  0.50667340  0.85260176     0.11100
H286        H  0.20785967  0.46685794  0.94253063     0.11100
C287        C  0.35443544  0.97286985  0.55302479    -0.15000
C288        C  0.38824260  0.48445972  0.56861505     0.07100
C289        C  0.38778707  0.49644878  0.60297265    -0.15000
C290        C  0.35397898  0.49749416  0.62115632    -0.15700
C291        C  0.31993457  0.98735640  0.60502804     0.07100
C292        C  0.32058173  0.97464142  0.57093101    -0.15000
H293        H  0.35385198  0.96384392  0.52643326     0.11100
H294        H  0.41339918  0.50568788  0.61552019     0.11100
H295        H  0.35428351  0.50741333  0.64745616     0.11100
H296        H  0.29484656  0.96635660  0.55797825     0.11100
C297        C  0.11408844  0.99805744  0.59704478    -0.15000
C298        C  0.11512205  0.01282269  0.56361393     0.07100
C299        C  0.14988371  0.02419205  0.55050791    -0.15000
C300        C  0.18302538  0.01972864  0.56980101    -0.15000
C301        C  0.18218689  0.00437225  0.60292911     0.07100
C302        C  0.14729002  0.99425474  0.61668947    -0.15000
H303        H  0.08775673  0.98886472  0.60773711     0.11100
H304        H  0.15176353  0.03530231  0.52471193     0.11100
H305        H  0.20942196  0.52812285  0.55864307     0.11100
H306        H  0.14581874  0.98235673  0.64219412     0.11100
O307        O  0.05362129  0.50898245  0.44405861    -0.81800
O308        O  0.44805163  0.99264785  0.45258081    -0.81800
O309        O  0.01172116  0.93656578  0.46425247    -0.81800
O310        O  0.46759227  0.58862538  0.48766818    -0.81800
O311        O  0.45303156  0.92247718  0.47650707    -0.81900
O312        O  0.00224368  0.56475844  0.44666380    -0.81800
O313        O  0.41960036  0.53155991  0.48750010    -0.81800
O314        O  0.07789599  0.97134419  0.48120073    -0.81900
C315        C  0.07963842  0.98710456  0.45240844     1.07900
C316        C  0.42052451  0.01370479  0.45920034     1.07800
C317        C  0.48276471  0.91551189  0.46014591     1.07900
C318        C  0.48008621  0.58939173  0.45697281     1.07800
O319        O  0.03374950  0.58833741  0.01228674    -0.81800
O320        O  0.49054597  0.93677174  0.03563632    -0.81900
O321        O  0.05409021  0.99192349  0.04737070    -0.81800
O322        O  0.44829038  0.50939944  0.05598276    -0.81800
O323        O  0.42430228  0.97206705  0.01875327    -0.81900
O324        O  0.08212073  0.53086461  0.01253315    -0.81800
O325        O  0.49928827  0.56468756  0.05329037    -0.81800
O326        O  0.04925706  0.92180299  0.02337111    -0.81900
Co327      Co  0.04046198  0.54593284  0.47927791     1.51500
Co328      Co  0.47185401  0.96731165  0.99219995     1.51700
Co329      Co  0.03033270  0.96692334  0.50770965     1.51600
Co330      Co  0.46119629  0.54624069  0.02071251     1.51500
O331        O  0.00097162  0.51306535  0.50001411    -1.43800
C332        C  0.02124544  0.58916297  0.04297588     1.07800
C333        C  0.51948189  0.91528633  0.03970349     1.07900
C334        C  0.08137697  0.51292393  0.04080290     1.07800
C335        C  0.42249168  0.98765173  0.04762541     1.07800
C336        C  0.01663720  0.78495255  0.12310287     0.78500
N337        N  0.01053409  0.78493424  0.15763687    -0.79800
C338        C  0.01081889  0.75303528  0.17565500     0.81000
N339        N  0.01669298  0.72107786  0.15857730    -0.79700
C340        C  0.02284133  0.72082318  0.12402377     0.81100
N341        N  0.02295242  0.75289415  0.10664729    -0.81400
C342        C  0.98504056  0.78510561  0.37674332     0.78500
N343        N  0.97830344  0.75319907  0.39319550    -0.79800
C344        C  0.97813947  0.72112442  0.37581548     0.81000
N345        N  0.98432759  0.72127335  0.34126127    -0.79700
C346        C  0.99063469  0.75309237  0.32419780     0.81100
N347        N  0.99128938  0.78495028  0.34223885    -0.81400
C348        C  0.21775375  0.49861187  0.12257180     0.78500
N349        N  0.21772352  0.49740736  0.15758549    -0.79800
C350        C  0.25056546  0.49329375  0.17563869     0.81000
N351        N  0.28346435  0.49014033  0.15835764    -0.79700
C352        C  0.28386797  0.49073436  0.12342875     0.81100
N353        N  0.25093696  0.49513351  0.10565247    -0.81400
C354        C  0.21839080  0.99077086  0.37686401     0.78500
N355        N  0.21883478  0.99010409  0.34193288    -0.79800
C356        C  0.25167212  0.99341555  0.32465453     0.81000
N357        N  0.28440059  0.99774814  0.34271253    -0.79700
C358        C  0.28432561  0.99901408  0.37771928     0.81100
N359        N  0.25121630  0.99539000  0.39464578    -0.81400
C360        C  0.28508208  0.99318221  0.23229993    -0.15000
C361        C  0.25079147  0.99288575  0.21375998     0.07100
C362        C  0.21687169  0.49247462  0.23200700    -0.15000
C363        C  0.21721380  0.49241927  0.26798604    -0.15000
C364        C  0.25148568  0.99293934  0.28653045     0.07100
C365        C  0.28542161  0.99329334  0.26828313    -0.15000
H366        H  0.31176664  0.99358199  0.21905073     0.11100
H367        H  0.18998703  0.49216736  0.21853028     0.11100
H368        H  0.19052182  0.49220231  0.28122705     0.11100
H369        H  0.31230639  0.99364615  0.28175900     0.11100
C370        C  0.50095821  0.72022393  0.23174944    -0.15000
C371        C  0.00541275  0.75309271  0.21363399     0.07100
C372        C  0.00516988  0.78595899  0.23227768    -0.15000
C373        C  0.00066266  0.78595056  0.26809120    -0.15000
C374        C  0.99609644  0.75308381  0.28620466     0.07100
C375        C  0.49626578  0.72022459  0.26753234    -0.15000
H376        H  0.50095140  0.69438381  0.21828256     0.11100
H377        H  0.00869403  0.81178771  0.21924848     0.11100
H378        H  0.00064336  0.81179820  0.28154001     0.11100
H379        H  0.49277272  0.69437643  0.28053401     0.11100
C380        C  0.98259536  0.62074115  0.39949755    -0.15000
C381        C  0.97303424  0.62158256  0.43460686     0.07100
C382        C  0.46135349  0.65479956  0.44909497    -0.15000
C383        C  0.46160218  0.68685080  0.42956477    -0.15000
C384        C  0.97318868  0.68640955  0.39496480     0.07100
C385        C  0.98245800  0.65276472  0.37983390    -0.15000
H386        H  0.99161078  0.59552465  0.38754797     0.11100
H387        H  0.45396983  0.65642642  0.47607490     0.11100
H388        H  0.45387162  0.71220629  0.44197821     0.11100
H389        H  0.99131412  0.65136969  0.35323664     0.11100
C390        C  0.45938062  0.82297795  0.42409632    -0.15000
C391        C  0.98435400  0.81950293  0.39654962     0.07100
C392        C  0.00883121  0.84842240  0.38920401    -0.15000
C393        C  0.00881885  0.87995958  0.40979556    -0.15000
C394        C  0.98351645  0.88329998  0.43725314     0.07100
C395        C  0.45866487  0.85458400  0.44390631    -0.15000
H396        H  0.44015620  0.80119574  0.43026784     0.11100
H397        H  0.02852931  0.84622265  0.36817301     0.11100
H398        H  0.02832074  0.90167575  0.40421189     0.11100
H399        H  0.43907047  0.85617593  0.46507661     0.11100
C400        C  0.51797001  0.62060707  0.10031933    -0.15000
C401        C  0.02804062  0.62125832  0.06533431     0.07100
C402        C  0.04002901  0.65424567  0.05092778    -0.15000
C403        C  0.03965841  0.68629726  0.07041801    -0.15000
C404        C  0.02764649  0.68606041  0.10489130     0.07100
C405        C  0.51798041  0.65262117  0.11994281    -0.15000
H406        H  0.50868620  0.59556900  0.11219769     0.11100
H407        H  0.04780388  0.65571781  0.02404023     0.11100
H408        H  0.04769680  0.71150089  0.05808370     0.11100
H409        H  0.50877420  0.65140713  0.14644044     0.11100
C410        C  0.04206993  0.85325261  0.05483203    -0.15000
C411        C  0.01855967  0.88304245  0.06247422     0.07100
C412        C  0.49441166  0.88080654  0.09085009    -0.15000
C413        C  0.49430398  0.84927602  0.11145221    -0.15000
C414        C  0.01748179  0.81930110  0.10321096     0.07100
C415        C  0.04122991  0.82168055  0.07467642    -0.15000
H416        H  0.06068791  0.85403540  0.03290362     0.11100
H417        H  0.47594682  0.90340107  0.09716977     0.11100
H418        H  0.47553863  0.84795430  0.13323224     0.11100
H419        H  0.05943133  0.79907732  0.06775606     0.11100
C420        C  0.35183528  0.02507966  0.44956222    -0.15000
C421        C  0.38674943  0.01365517  0.43644997     0.07100
C422        C  0.38796487  0.99872780  0.40310202    -0.15000
C423        C  0.35480296  0.99478215  0.38354912    -0.15000
C424        C  0.31977311  0.00493517  0.39731264     0.07100
C425        C  0.31872642  0.02048016  0.43034935    -0.15000
H426        H  0.34983329  0.03630744  0.47530672     0.11100
H427        H  0.41441897  0.98947804  0.39241728     0.11100
H428        H  0.35642742  0.98273488  0.35811577     0.11100
H429        H  0.29221081  0.02889707  0.44149461     0.11100
C430        C  0.14808533  0.97287589  0.44730754    -0.15000
C431        C  0.11404053  0.98402893  0.43154334     0.07100
C432        C  0.11429300  0.99576491  0.39710087    -0.15000
C433        C  0.14811578  0.99696301  0.37897951    -0.15000
C434        C  0.18236423  0.98724047  0.39524900     0.07100
C435        C  0.18194537  0.97480302  0.42945485    -0.15000
H436        H  0.14882081  0.46409044  0.47397911     0.11100
H437        H  0.08848351  0.00468049  0.38442913     0.11100
H438        H  0.14762187  0.00667182  0.35260145     0.11100
H439        H  0.20785226  0.96685621  0.44253031     0.11100
C440        C  0.35444300  0.47286964  0.05302471    -0.15000
C441        C  0.38823492  0.98446097  0.06861460     0.07100
C442        C  0.38777933  0.99645127  0.10297181    -0.15000
C443        C  0.35397129  0.99749686  0.12115559    -0.15700
C444        C  0.31994219  0.48735484  0.10502836     0.07100
C445        C  0.32058929  0.47464098  0.07093096    -0.15000
H446        H  0.35385948  0.46384477  0.02643298     0.11100
H447        H  0.41339137  0.00569109  0.11551903     0.11100
H448        H  0.35427576  0.00741688  0.14745503     0.11100
H449        H  0.29485402  0.46635690  0.05797788     0.11100
C450        C  0.11409648  0.49805431  0.09704463    -0.15000
C451        C  0.11512964  0.51282194  0.06361468     0.07100
C452        C  0.14989084  0.52419396  0.05050971    -0.15000
C453        C  0.18303262  0.51973071  0.06980271    -0.15000
C454        C  0.18219457  0.50437175  0.10292975     0.07100
C455        C  0.14729811  0.49425179  0.11668926    -0.15000
H456        H  0.08776523  0.48885957  0.10773621     0.11100
H457        H  0.15177031  0.53530632  0.02471442     0.11100
H458        H  0.20941504  0.02811886  0.05864066     0.11100
H459        H  0.14582726  0.48235185  0.14219317     0.11100
O460        O  0.05362133  0.50898243  0.94405861    -0.81800
O461        O  0.44805164  0.99264779  0.95258075    -0.81800
O462        O  0.01172119  0.93656586  0.96425255    -0.81800
O463        O  0.46759229  0.58862533  0.98766821    -0.81800
O464        O  0.45303150  0.92247711  0.97650717    -0.81900
O465        O  0.00224358  0.56475846  0.94666386    -0.81800
O466        O  0.41960032  0.53155994  0.98750006    -0.81800
O467        O  0.07789596  0.97134416  0.98120069    -0.81900
C468        C  0.07963839  0.98710449  0.95240837     1.07900
C469        C  0.42052454  0.01370475  0.95920033     1.07800
C470        C  0.48276468  0.91551189  0.96014602     1.07900
C471        C  0.48008633  0.58939174  0.95697286     1.07800
O472        O  0.03374956  0.58833742  0.51228676    -0.81800
O473        O  0.49054609  0.93677171  0.53563627    -0.81900
O474        O  0.05409025  0.99192343  0.54737062    -0.81800
O475        O  0.44829042  0.50939942  0.55598271    -0.81800
O476        O  0.42430240  0.97206705  0.51875331    -0.81900
O477        O  0.08212072  0.53086461  0.51253314    -0.81800
O478        O  0.49928840  0.56468753  0.55329034    -0.81800
O479        O  0.04925700  0.92180293  0.52337100    -0.81900
Co480      Co  0.04046195  0.54593282  0.97927792     1.51500
Co481      Co  0.47185411  0.96731167  0.49219994     1.51700
Co482      Co  0.03033273  0.96692340  0.00770972     1.51600
Co483      Co  0.46119635  0.54624072  0.52071250     1.51500
O484        O  0.00097164  0.51306528  0.00001411    -1.43800
C485        C  0.02124533  0.58916302  0.54297582     1.07800
C486        C  0.51948201  0.91528630  0.53970344     1.07900
C487        C  0.08137693  0.51292395  0.54080289     1.07800
C488        C  0.42249172  0.98765173  0.54762546     1.07800
C489        C  0.01663728  0.78495252  0.62310290     0.78500
N490        N  0.01053399  0.78493417  0.65763685    -0.79800
C491        C  0.01081885  0.75303520  0.67565499     0.81000
N492        N  0.01669306  0.72107780  0.65857729    -0.79700
C493        C  0.02284140  0.72082315  0.62402376     0.81100
N494        N  0.02295255  0.75289413  0.60664731    -0.81400
C495        C  0.98504058  0.78510566  0.87674330     0.78500
N496        N  0.97830337  0.75319914  0.89319548    -0.79800
C497        C  0.97813953  0.72112446  0.87581550     0.81000
N498        N  0.98432774  0.72127335  0.84126130    -0.79700
C499        C  0.99063482  0.75309237  0.82419780     0.81100
N500        N  0.99128951  0.78495029  0.84223883    -0.81400
C501        C  0.21775376  0.49861181  0.62257179     0.78500
N502        N  0.21772358  0.49740731  0.65758549    -0.79800
C503        C  0.25056554  0.49329370  0.67563868     0.81000
N504        N  0.28346441  0.49014027  0.65835761    -0.79700
C505        C  0.28386797  0.49073430  0.62342871     0.81100
N506        N  0.25093694  0.49513345  0.60565244    -0.81400
C507        C  0.21839081  0.99077099  0.87686407     0.78500
N508        N  0.21883482  0.99010407  0.84193296    -0.79800
C509        C  0.25167216  0.99341549  0.82465462     0.81000
N510        N  0.28440064  0.99774808  0.84271262    -0.79700
C511        C  0.28432565  0.99901408  0.87771937     0.81100
N512        N  0.25121631  0.99539017  0.89464587    -0.81400
C513        C  0.28508212  0.99318218  0.73229998    -0.15000
C514        C  0.25079150  0.99288570  0.71375999     0.07100
C515        C  0.21687171  0.49247459  0.73200692    -0.15000
C516        C  0.21721376  0.49241929  0.76798598    -0.15000
C517        C  0.25148571  0.99293928  0.78653050     0.07100
C518        C  0.28542166  0.99329328  0.76828320    -0.15000
H519        H  0.31176670  0.99358202  0.71905081     0.11100
H520        H  0.18998707  0.49216737  0.71853015     0.11100
H521        H  0.19052176  0.49220235  0.78122695     0.11100
H522        H  0.31230637  0.99364612  0.78175906     0.11100
C523        C  0.50095831  0.72022388  0.73174944    -0.15000
C524        C  0.00541279  0.75309266  0.71363397     0.07100
C525        C  0.00516983  0.78595893  0.73227765    -0.15000
C526        C  0.00066274  0.78595053  0.76809115    -0.15000
C527        C  0.99609655  0.75308380  0.78620465     0.07100
C528        C  0.49626581  0.72022454  0.76753235    -0.15000
H529        H  0.50095145  0.69438380  0.71828257     0.11100
H530        H  0.00869388  0.81178771  0.71924838     0.11100
H531        H  0.00064348  0.81179824  0.78153999     0.11100
H532        H  0.49277274  0.69437646  0.78053398     0.11100
C533        C  0.98259524  0.62074112  0.89949756    -0.15000
C534        C  0.97303425  0.62158262  0.93460693     0.07100
C535        C  0.46135336  0.65479947  0.94909497    -0.15000
C536        C  0.46160213  0.68685075  0.92956481    -0.15000
C537        C  0.97318877  0.68640959  0.89496488     0.07100
C538        C  0.98245788  0.65276473  0.87983393    -0.15000
H539        H  0.99161050  0.59552467  0.88754798     0.11100
H540        H  0.45396961  0.65642626  0.97607488     0.11100
H541        H  0.45387154  0.71220622  0.94197827     0.11100
H542        H  0.99131384  0.65136969  0.85323663     0.11100
C543        C  0.45938066  0.82297786  0.92409644    -0.15000
C544        C  0.98435403  0.81950294  0.89654964     0.07100
C545        C  0.00883130  0.84842235  0.88920413    -0.15000
C546        C  0.00881894  0.87995956  0.90979564    -0.15000
C547        C  0.98351649  0.88330002  0.93725321     0.07100
C548        C  0.45866496  0.85458397  0.94390637    -0.15000
H549        H  0.44015637  0.80119565  0.93026802     0.11100
H550        H  0.02852952  0.84622254  0.86817311     0.11100
H551        H  0.02832086  0.90167568  0.90421195     0.11100
H552        H  0.43907057  0.85617587  0.96507676     0.11100
C553        C  0.51796996  0.62060699  0.60031933    -0.15000
C554        C  0.02804055  0.62125833  0.56533426     0.07100
C555        C  0.04002909  0.65424564  0.55092776    -0.15000
C556        C  0.03965848  0.68629722  0.57041799    -0.15000
C557        C  0.02764649  0.68606040  0.60489125     0.07100
C558        C  0.51798049  0.65262113  0.61994277    -0.15000
H559        H  0.50868610  0.59556903  0.61219765     0.11100
H560        H  0.04780401  0.65571778  0.52404024     0.11100
H561        H  0.04769697  0.71150088  0.55808364     0.11100
H562        H  0.50877431  0.65140710  0.64644047     0.11100
C563        C  0.04206987  0.85325257  0.55483195    -0.15000
C564        C  0.01855969  0.88304242  0.56247423     0.07100
C565        C  0.49441168  0.88080651  0.59085001    -0.15000
C566        C  0.49430411  0.84927607  0.61145226    -0.15000
C567        C  0.01748186  0.81930108  0.60321097     0.07100
C568        C  0.04122995  0.82168053  0.57467640    -0.15000
H569        H  0.06068776  0.85403535  0.53290346     0.11100
H570        H  0.47594668  0.90340104  0.59716961     0.11100
H571        H  0.47553886  0.84795438  0.63323231     0.11100
H572        H  0.05943136  0.79907736  0.56775606     0.11100
C573        C  0.35183530  0.02507962  0.94956230    -0.15000
C574        C  0.38674945  0.01365511  0.93645001     0.07100
C575        C  0.38796495  0.99872776  0.90310206    -0.15000
C576        C  0.35480304  0.99478211  0.88354914    -0.15000
C577        C  0.31977319  0.00493518  0.89731267     0.07100
C578        C  0.31872648  0.02048027  0.93034932    -0.15000
H579        H  0.34983330  0.03630728  0.97530674     0.11100
H580        H  0.41441904  0.98947805  0.89241737     0.11100
H581        H  0.35642753  0.98273485  0.85811579     0.11100
H582        H  0.29221088  0.02889727  0.94149451     0.11100
C583        C  0.14808529  0.97287583  0.94730748    -0.15000
C584        C  0.11404050  0.98402889  0.93154327     0.07100
C585        C  0.11429300  0.99576501  0.89710083    -0.15000
C586        C  0.14811578  0.99696299  0.87897946    -0.15000
C587        C  0.18236423  0.98724047  0.89524898     0.07100
C588        C  0.18194531  0.97480300  0.92945479    -0.15000
H589        H  0.14882073  0.46409047  0.97397911     0.11100
H590        H  0.08848358  0.00468069  0.88442912     0.11100
H591        H  0.14762188  0.00667178  0.85260138     0.11100
H592        H  0.20785230  0.96685623  0.94253033     0.11100
C593        C  0.35444296  0.47286960  0.55302466    -0.15000
C594        C  0.38823496  0.98446093  0.56861465     0.07100
C595        C  0.38777939  0.99645120  0.60297190    -0.15000
C596        C  0.35397133  0.99749680  0.62115570    -0.15700
C597        C  0.31994213  0.48735479  0.60502830     0.07100
C598        C  0.32058922  0.47464093  0.57093089    -0.15000
H599        H  0.35385944  0.46384476  0.52643292     0.11100
H600        H  0.41339139  0.00569101  0.61551909     0.11100
H601        H  0.35427579  0.00741682  0.64745510     0.11100
H602        H  0.29485395  0.46635688  0.55797779     0.11100
C603        C  0.11409642  0.49805430  0.59704457    -0.15000
C604        C  0.11512961  0.51282190  0.56361461     0.07100
C605        C  0.14989082  0.52419390  0.55050965    -0.15000
C606        C  0.18303261  0.51973064  0.56980267    -0.15000
C607        C  0.18219454  0.50437169  0.60292973     0.07100
C608        C  0.14729804  0.49425174  0.61668921    -0.15000
H609        H  0.08776512  0.48885966  0.60773614     0.11100
H610        H  0.15177030  0.53530628  0.52471437     0.11100
H611        H  0.20941508  0.02811883  0.55864060     0.11100
H612        H  0.14582711  0.48235183  0.64219312     0.11100
O613        O  0.55361395  0.00898177  0.44405781    -0.81800
O614        O  0.94805950  0.49264881  0.45258108    -0.81800
O615        O  0.51172836  0.43656543  0.46425241    -0.81800
O616        O  0.96758499  0.08862551  0.48766641    -0.81800
O617        O  0.95303842  0.42247802  0.47650656    -0.81900
O618        O  0.50223627  0.06475814  0.44666224    -0.81800
O619        O  0.91959291  0.03156007  0.48749906    -0.81800
O620        O  0.57790337  0.47134402  0.48120074    -0.81900
C621        C  0.57964576  0.48710508  0.45240876     1.07900
C622        C  0.92053209  0.51370521  0.45920103     1.07800
C623        C  0.98277150  0.41551208  0.46014563     1.07900
C624        C  0.98007925  0.08939180  0.45697112     1.07800
O625        O  0.53374216  0.08833753  0.01228499    -0.81800
O626        O  0.99055311  0.43677133  0.03563578    -0.81900
O627        O  0.55409797  0.49192238  0.04737092    -0.81800
O628        O  0.94828278  0.00940034  0.05598180    -0.81800
O629        O  0.92430987  0.47206709  0.01875342    -0.81900
O630        O  0.58211314  0.03086487  0.01253230    -0.81800
O631        O  0.99928084  0.06468823  0.05328880    -0.81800
O632        O  0.54926420  0.42180198  0.02337079    -0.81900
Co633      Co  0.54045452  0.04593266  0.47927666     1.51500
Co634      Co  0.97186150  0.46731195  0.99219991     1.51700
Co635      Co  0.53034023  0.46692279  0.50770982     1.51600
Co636      Co  0.96118878  0.04624121  0.02071119     1.51500
O637        O  0.50096400  0.01306550  0.50001317    -1.43800
C638        C  0.52123823  0.08916325  0.04297414     1.07800
C639        C  0.01948877  0.41528562  0.03970299     1.07900
C640        C  0.58136927  0.01292471  0.04080234     1.07800
C641        C  0.92249937  0.48765098  0.04762595     1.07800
C642        C  0.51663926  0.28495228  0.12310229     0.78500
N643        N  0.51053699  0.28493411  0.15763640    -0.79800
C644        C  0.51082025  0.25303502  0.17565431     0.81000
N645        N  0.51669191  0.22107740  0.15857627    -0.79700
C646        C  0.52283952  0.22082269  0.12402263     0.81100
N647        N  0.52295220  0.25289371  0.10664637    -0.81400
C648        C  0.48504145  0.28510570  0.37674242     0.78500
N649        N  0.47830168  0.25319947  0.39319423    -0.79800
C650        C  0.47813620  0.22112491  0.37581404     0.81000
N651        N  0.48432517  0.22127374  0.34125996    -0.79700
C652        C  0.49063491  0.25309245  0.32419684     0.81100
N653        N  0.49129139  0.28495018  0.34223813    -0.81400
C654        C  0.71774608  0.99861262  0.12257137     0.78500
N655        N  0.71771587  0.99740839  0.15758510    -0.79800
C656        C  0.75055789  0.99329531  0.17563832     0.81000
N657        N  0.78345681  0.99014219  0.15835728    -0.79700
C658        C  0.78386040  0.99073594  0.12342840     0.81100
N659        N  0.75092934  0.99513451  0.10565211    -0.81400
C660        C  0.71839810  0.49077229  0.37686432     0.78500
N661        N  0.71884214  0.49010551  0.34193322    -0.79800
C662        C  0.75167958  0.49341644  0.32465492     0.81000
N663        N  0.78440813  0.49774847  0.34271298    -0.79700
C664        C  0.78433310  0.49901437  0.37771974     0.81100
N665        N  0.75122366  0.49539085  0.39464614    -0.81400
C666        C  0.78508973  0.49318013  0.23230034    -0.15000
C667        C  0.75079912  0.49288447  0.21376035     0.07100
C668        C  0.71686416  0.99247432  0.23200664    -0.15000
C669        C  0.71720625  0.99241816  0.26798569    -0.15000
C670        C  0.75149320  0.49293980  0.28653083     0.07100
C671        C  0.78542921  0.49329213  0.26828356    -0.15000
H672        H  0.81177434  0.49357878  0.21905119     0.11100
H673        H  0.68997945  0.99216637  0.21852991     0.11100
H674        H  0.69051439  0.99219999  0.28122667     0.11100
H675        H  0.81231389  0.49364430  0.28175946     0.11100
C676        C  0.00095155  0.22022433  0.23174769    -0.15000
C677        C  0.50541493  0.25309251  0.21363333     0.07100
C678        C  0.50518099  0.28595820  0.23227800    -0.15000
C679        C  0.50067343  0.28594981  0.26809149    -0.15000
C680        C  0.49609789  0.25308370  0.28620385     0.07100
C681        C  0.99625873  0.22022511  0.26753056    -0.15000
H682        H  0.00093768  0.19438480  0.21828000     0.11100
H683        H  0.50871230  0.31178632  0.21924958     0.11100
H684        H  0.50066111  0.31179697  0.28154109     0.11100
H685        H  0.99275836  0.19437750  0.28053136     0.11100
C686        C  0.48258864  0.12074129  0.39949579    -0.15000
C687        C  0.47302785  0.12158287  0.43460520     0.07100
C688        C  0.96134819  0.15480022  0.44909340    -0.15000
C689        C  0.96159752  0.18685151  0.42956319    -0.15000
C690        C  0.47318392  0.18641005  0.39496321     0.07100
C691        C  0.48245197  0.15276494  0.37983216    -0.15000
H692        H  0.49160322  0.09552465  0.38754613     0.11100
H693        H  0.95396485  0.15642722  0.47607337     0.11100
H694        H  0.95386785  0.21220725  0.44197677     0.11100
H695        H  0.49130774  0.15136970  0.35323483     0.11100
C696        C  0.95938323  0.32297923  0.42409551    -0.15000
C697        C  0.48435672  0.31950296  0.39654897     0.07100
C698        C  0.50883571  0.34842115  0.38920378    -0.15000
C699        C  0.50882485  0.37995834  0.40979545    -0.15000
C700        C  0.48352227  0.38329999  0.43725280     0.07100
C701        C  0.95866916  0.35458521  0.44390564    -0.15000
H702        H  0.94015750  0.30119801  0.43026679     0.11100
H703        H  0.52853397  0.34622042  0.36817304     0.11100
H704        H  0.52832795  0.40167347  0.40421204     0.11100
H705        H  0.93907457  0.35617801  0.46507584     0.11100
C706        C  0.01796293  0.12060724  0.10031749    -0.15000
C707        C  0.52803433  0.12125826  0.06533263     0.07100
C708        C  0.54002477  0.15424505  0.05092646    -0.15000
C709        C  0.53965538  0.18629653  0.07041680    -0.15000
C710        C  0.52764276  0.18605998  0.10488989     0.07100
C711        C  0.01797459  0.15262121  0.11994106    -0.15000
H712        H  0.00867763  0.09556965  0.11219555     0.11100
H713        H  0.54780042  0.15571693  0.02403906     0.11100
H714        H  0.54769543  0.21149981  0.05808280     0.11100
H715        H  0.00876779  0.15140749  0.14643857     0.11100
C716        C  0.54207585  0.35325175  0.05483225    -0.15000
C717        C  0.51856581  0.38304190  0.06247382     0.07100
C718        C  0.99441661  0.38080637  0.09084884    -0.15000
C719        C  0.99430776  0.34927605  0.11145111    -0.15000
C720        C  0.51748538  0.31930075  0.10321052     0.07100
C721        C  0.54123454  0.32167973  0.07467667    -0.15000
H722        H  0.56069452  0.35403425  0.03290435     0.11100
H723        H  0.97595166  0.40340116  0.09716786     0.11100
H724        H  0.97554163  0.34795461  0.13323048     0.11100
H725        H  0.55943574  0.29907617  0.06775689     0.11100
C726        C  0.85184250  0.52507854  0.44956343    -0.15000
C727        C  0.88675689  0.51365534  0.43645076     0.07100
C728        C  0.88797257  0.49872893  0.40310243    -0.15000
C729        C  0.85481067  0.49478307  0.38354944    -0.15000
C730        C  0.81978063  0.50493503  0.39731330     0.07100
C731        C  0.81873371  0.52047895  0.43035046    -0.15000
H732        H  0.84984030  0.53630542  0.47530824     0.11100
H733        H  0.91442686  0.48948018  0.39241740     0.11100
H734        H  0.85643538  0.48273672  0.35811578     0.11100
H735        H  0.79221800  0.52889503  0.44149596     0.11100
C736        C  0.64809270  0.47287727  0.44730780    -0.15000
C737        C  0.61404784  0.48403007  0.43154362     0.07100
C738        C  0.61430026  0.49576633  0.39710124    -0.15000
C739        C  0.64812301  0.49696465  0.37897982    -0.15000
C740        C  0.68237151  0.48724215  0.39524930     0.07100
C741        C  0.68195267  0.47480471  0.42945512    -0.15000
H742        H  0.64881325  0.96408908  0.47397886     0.11100
H743        H  0.58849065  0.50468177  0.38442951     0.11100
H744        H  0.64762905  0.50667337  0.35260178     0.11100
H745        H  0.70785964  0.46685795  0.44253064     0.11100
C746        C  0.85443543  0.97286990  0.05302468    -0.15000
C747        C  0.88824260  0.48445976  0.06861504     0.07100
C748        C  0.88778708  0.49644886  0.10297261    -0.15000
C749        C  0.85397901  0.49749425  0.12115637    -0.15700
C750        C  0.81993457  0.98735647  0.10502797     0.07100
C751        C  0.82058173  0.97464146  0.07093095    -0.15000
H752        H  0.85385197  0.96384400  0.02643324     0.11100
H753        H  0.91339924  0.50568799  0.11552014     0.11100
H754        H  0.85428356  0.50741339  0.14745612     0.11100
H755        H  0.79484654  0.96635659  0.05797819     0.11100
C756        C  0.61408844  0.99805744  0.09704485    -0.15000
C757        C  0.61512205  0.01282261  0.06361395     0.07100
C758        C  0.64988370  0.02419203  0.05050800    -0.15000
C759        C  0.68302537  0.01972865  0.06980108    -0.15000
C760        C  0.68218690  0.00437218  0.10292914     0.07100
C761        C  0.64729003  0.99425473  0.11668952    -0.15000
H762        H  0.58775671  0.98886478  0.10773721     0.11100
H763        H  0.65176352  0.03530238  0.02471199     0.11100
H764        H  0.70942201  0.52812270  0.05864307     0.11100
H765        H  0.64581874  0.98235674  0.14219422     0.11100
O766        O  0.55361388  0.00898167  0.94405779    -0.81800
O767        O  0.94805942  0.49264885  0.95258104    -0.81800
O768        O  0.51172839  0.43656538  0.96425234    -0.81800
O769        O  0.96758496  0.08862554  0.98766639    -0.81800
O770        O  0.95303834  0.42247799  0.97650662    -0.81900
O771        O  0.50223635  0.06475823  0.94666218    -0.81800
O772        O  0.91959287  0.03156003  0.98749904    -0.81800
O773        O  0.57790333  0.47134397  0.98120072    -0.81900
C774        C  0.57964576  0.48710505  0.95240877     1.07900
C775        C  0.92053204  0.51370527  0.95920101     1.07800
C776        C  0.98277139  0.41551208  0.96014562     1.07900
C777        C  0.98007917  0.08939181  0.95697106     1.07800
O778        O  0.53374229  0.08833746  0.51228509    -0.81800
O779        O  0.99055321  0.43677131  0.53563578    -0.81900
O780        O  0.55409804  0.49192238  0.54737094    -0.81800
O781        O  0.94828270  0.00940042  0.55598181    -0.81800
O782        O  0.92430989  0.47206698  0.51875345    -0.81900
O783        O  0.58211315  0.03086488  0.51253228    -0.81800
O784        O  0.99928089  0.06468816  0.55328882    -0.81800
O785        O  0.54926410  0.42180201  0.52337080    -0.81900
Co786      Co  0.54045448  0.04593264  0.97927664     1.51500
Co787      Co  0.97186155  0.46731195  0.49219993     1.51700
Co788      Co  0.53034020  0.46692272  0.00770977     1.51600
Co789      Co  0.96118881  0.04624120  0.52071119     1.51500
O790        O  0.50096393  0.01306549  0.00001315    -1.43800
C791        C  0.52123827  0.08916318  0.54297421     1.07800
C792        C  0.01948888  0.41528563  0.53970297     1.07900
C793        C  0.58136928  0.01292471  0.54080231     1.07800
C794        C  0.92249937  0.48765091  0.54762596     1.07800
C795        C  0.51663914  0.28495222  0.62310225     0.78500
N796        N  0.51053687  0.28493405  0.65763637    -0.79800
C797        C  0.51082027  0.25303497  0.67565429     0.81000
N798        N  0.51669205  0.22107735  0.65857630    -0.79700
C799        C  0.52283960  0.22082263  0.62402265     0.81100
N800        N  0.52295213  0.25289365  0.60664635    -0.81400
C801        C  0.48504148  0.28510575  0.87674242     0.78500
N802        N  0.47830179  0.25319951  0.89319424    -0.79800
C803        C  0.47813630  0.22112494  0.87581406     0.81000
N804        N  0.48432530  0.22127374  0.84125998    -0.79700
C805        C  0.49063495  0.25309245  0.82419684     0.81100
N806        N  0.49129133  0.28495021  0.84223809    -0.81400
C807        C  0.71774611  0.99861256  0.62257134     0.78500
N808        N  0.71771587  0.99740834  0.65758506    -0.79800
C809        C  0.75055789  0.99329526  0.67563832     0.81000
N810        N  0.78345682  0.99014212  0.65835730    -0.79700
C811        C  0.78386045  0.99073588  0.62342842     0.81100
N812        N  0.75092941  0.99513445  0.60565209    -0.81400
C813        C  0.71839806  0.49077237  0.87686429     0.78500
N814        N  0.71884216  0.49010551  0.84193318    -0.79800
C815        C  0.75167962  0.49341638  0.82465493     0.81000
N816        N  0.78440815  0.49774843  0.84271303    -0.79700
C817        C  0.78433305  0.49901436  0.87771980     0.81100
N818        N  0.75122360  0.49539088  0.89464615    -0.81400
C819        C  0.78508972  0.49318012  0.73230033    -0.15000
C820        C  0.75079911  0.49288441  0.71376033     0.07100
C821        C  0.71686415  0.99247429  0.73200666    -0.15000
C822        C  0.71720627  0.99241809  0.76798571    -0.15000
C823        C  0.75149322  0.49293979  0.78653082     0.07100
C824        C  0.78542919  0.49329223  0.76828354    -0.15000
H825        H  0.81177431  0.49357871  0.71905118     0.11100
H826        H  0.68997946  0.99216640  0.71852993     0.11100
H827        H  0.69051432  0.99219996  0.78122672     0.11100
H828        H  0.81231396  0.49364450  0.78175946     0.11100
C829        C  0.00095148  0.22022430  0.73174764    -0.15000
C830        C  0.50541486  0.25309247  0.71363328     0.07100
C831        C  0.50518085  0.28595816  0.73227794    -0.15000
C832        C  0.50067327  0.28594978  0.76809141    -0.15000
C833        C  0.49609776  0.25308370  0.78620381     0.07100
C834        C  0.99625879  0.22022507  0.76753050    -0.15000
H835        H  0.00093742  0.19438479  0.71827991     0.11100
H836        H  0.50871222  0.31178628  0.71924951     0.11100
H837        H  0.50066100  0.31179699  0.78154105     0.11100
H838        H  0.99275837  0.19437741  0.78053130     0.11100
C839        C  0.48258851  0.12074129  0.89949573    -0.15000
C840        C  0.47302787  0.12158294  0.93460518     0.07100
C841        C  0.96134810  0.15480026  0.94909333    -0.15000
C842        C  0.96159760  0.18685159  0.92956318    -0.15000
C843        C  0.47318383  0.18641007  0.89496315     0.07100
C844        C  0.48245182  0.15276494  0.87983212    -0.15000
H845        H  0.49160303  0.09552463  0.88754607     0.11100
H846        H  0.95396469  0.15642729  0.97607327     0.11100
H847        H  0.95386803  0.21220725  0.94197672     0.11100
H848        H  0.49130764  0.15136968  0.85323477     0.11100
C849        C  0.95938335  0.32297919  0.92409555    -0.15000
C850        C  0.48435671  0.31950302  0.89654896     0.07100
C851        C  0.50883569  0.34842124  0.88920384    -0.15000
C852        C  0.50882491  0.37995831  0.90979557    -0.15000
C853        C  0.48352229  0.38329999  0.93725285     0.07100
C854        C  0.95866909  0.35458521  0.94390564    -0.15000
H855        H  0.94015770  0.30119791  0.93026682     0.11100
H856        H  0.52853395  0.34622057  0.86817297     0.11100
H857        H  0.52832809  0.40167351  0.90421218     0.11100
H858        H  0.93907444  0.35617801  0.96507574     0.11100
C859        C  0.01796302  0.12060720  0.60031751    -0.15000
C860        C  0.52803433  0.12125820  0.56533268     0.07100
C861        C  0.54002471  0.15424499  0.55092645    -0.15000
C862        C  0.53965542  0.18629648  0.57041683    -0.15000
C863        C  0.52764285  0.18605990  0.60488994     0.07100
C864        C  0.01797475  0.15262114  0.61994111    -0.15000
H865        H  0.00867764  0.09556961  0.61219555     0.11100
H866        H  0.54780027  0.15571686  0.52403906     0.11100
H867        H  0.54769547  0.21149973  0.55808286     0.11100
H868        H  0.00876795  0.15140740  0.64643861     0.11100
C869        C  0.54207589  0.35325174  0.55483227    -0.15000
C870        C  0.51856570  0.38304185  0.56247375     0.07100
C871        C  0.99441669  0.38080636  0.59084880    -0.15000
C872        C  0.99430780  0.34927602  0.61145104    -0.15000
C873        C  0.51748537  0.31930072  0.60321051     0.07100
C874        C  0.54123464  0.32167975  0.57467675    -0.15000
H875        H  0.56069459  0.35403425  0.53290442     0.11100
H876        H  0.97595180  0.40340118  0.59716783     0.11100
H877        H  0.97554165  0.34795459  0.63323047     0.11100
H878        H  0.55943593  0.29907619  0.56775703     0.11100
C879        C  0.85184247  0.52507866  0.94956346    -0.15000
C880        C  0.88675682  0.51365537  0.93645077     0.07100
C881        C  0.88797244  0.49872893  0.90310243    -0.15000
C882        C  0.85481056  0.49478323  0.88354944    -0.15000
C883        C  0.81978054  0.50493511  0.89731334     0.07100
C884        C  0.81873366  0.52047897  0.93035054    -0.15000
H885        H  0.84984031  0.53630560  0.97530822     0.11100
H886        H  0.91442670  0.48948004  0.89241734     0.11100
H887        H  0.85643524  0.48273689  0.85811573     0.11100
H888        H  0.79221793  0.52889496  0.94149618     0.11100
C889        C  0.64809275  0.47287728  0.94730784    -0.15000
C890        C  0.61404785  0.48403003  0.93154365     0.07100
C891        C  0.61430020  0.49576626  0.89710126    -0.15000
C892        C  0.64812292  0.49696459  0.87897980    -0.15000
C893        C  0.68237146  0.48724211  0.89524924     0.07100
C894        C  0.68195267  0.47480467  0.92945507    -0.15000
H895        H  0.64881321  0.96408898  0.97397877     0.11100
H896        H  0.58849060  0.50468174  0.88442962     0.11100
H897        H  0.64762890  0.50667342  0.85260177     0.11100
H898        H  0.70785971  0.46685798  0.94253056     0.11100
C899        C  0.85443554  0.97286985  0.55302482    -0.15000
C900        C  0.88824262  0.48445968  0.56861506     0.07100
C901        C  0.88778715  0.49644877  0.60297264    -0.15000
C902        C  0.85397905  0.49749417  0.62115635    -0.15700
C903        C  0.81993467  0.98735641  0.60502806     0.07100
C904        C  0.82058184  0.97464142  0.57093102    -0.15000
H905        H  0.85385208  0.96384392  0.52643327     0.11100
H906        H  0.91339927  0.50568786  0.61552016     0.11100
H907        H  0.85428359  0.50741333  0.64745612     0.11100
H908        H  0.79484668  0.96635660  0.55797825     0.11100
C909        C  0.61408840  0.99805744  0.59704478    -0.15000
C910        C  0.61512206  0.01282268  0.56361391     0.07100
C911        C  0.64988376  0.02419203  0.55050792    -0.15000
C912        C  0.68302543  0.01972858  0.56980103    -0.15000
C913        C  0.68218692  0.00437212  0.60292909     0.07100
C914        C  0.64729002  0.99425469  0.61668944    -0.15000
H915        H  0.58775674  0.98886479  0.60773705     0.11100
H916        H  0.65176363  0.03530234  0.52471197     0.11100
H917        H  0.70942198  0.52812288  0.55864305     0.11100
H918        H  0.64581867  0.98235667  0.64219412     0.11100
O919        O  0.55362130  0.50898247  0.44405861    -0.81800
O920        O  0.94805165  0.99264785  0.45258080    -0.81800
O921        O  0.51172119  0.93656577  0.46425244    -0.81800
O922        O  0.96759233  0.58862538  0.48766814    -0.81800
O923        O  0.95303151  0.92247719  0.47650704    -0.81900
O924        O  0.50224354  0.56475842  0.44666381    -0.81800
O925        O  0.91960032  0.53155989  0.48750010    -0.81800
O926        O  0.57789597  0.97134418  0.48120072    -0.81900
C927        C  0.57963841  0.98710454  0.45240842     1.07900
C928        C  0.92052454  0.01370479  0.45920035     1.07800
C929        C  0.98276467  0.91551191  0.46014591     1.07900
C930        C  0.98008633  0.58939174  0.45697279     1.07800
O931        O  0.53374959  0.58833728  0.01228681    -0.81800
O932        O  0.99054609  0.93677181  0.03563630    -0.81900
O933        O  0.55409015  0.99192353  0.04737070    -0.81800
O934        O  0.94829042  0.50939945  0.05598273    -0.81800
O935        O  0.92430238  0.97206706  0.01875327    -0.81900
O936        O  0.58212073  0.53086457  0.01253316    -0.81800
O937        O  0.99928841  0.56468758  0.05329038    -0.81800
O938        O  0.54925695  0.92180300  0.02337110    -0.81900
Co939      Co  0.54046192  0.54593284  0.47927790     1.51500
Co940      Co  0.97185410  0.96731176  0.99219994     1.51700
Co941      Co  0.53033272  0.96692334  0.50770965     1.51600
Co942      Co  0.96119635  0.54624076  0.02071252     1.51500
O943        O  0.50097164  0.51306531  0.50001411    -1.43800
C944        C  0.52124536  0.58916293  0.04297587     1.07800
C945        C  0.01948198  0.91528635  0.03970347     1.07900
C946        C  0.58137693  0.51292391  0.04080290     1.07800
C947        C  0.92249174  0.98765172  0.04762542     1.07800
C948        C  0.51663724  0.78495254  0.12310288     0.78500
N949        N  0.51053399  0.78493422  0.15763685    -0.79800
C950        C  0.51081886  0.75303527  0.17565500     0.81000
N951        N  0.51669307  0.72107787  0.15857731    -0.79700
C952        C  0.52284142  0.72082318  0.12402378     0.81100
N953        N  0.52295255  0.75289415  0.10664732    -0.81400
C954        C  0.48504063  0.78510559  0.37674333     0.78500
N955        N  0.47830335  0.75319908  0.39319548    -0.79800
C956        C  0.47813943  0.72112442  0.37581547     0.81000
N957        N  0.48432763  0.72127334  0.34126127    -0.79700
C958        C  0.49063471  0.75309237  0.32419780     0.81100
N959        N  0.49128948  0.78495026  0.34223886    -0.81400
C960        C  0.71775374  0.49861185  0.12257182     0.78500
N961        N  0.71772354  0.49740735  0.15758551    -0.79800
C962        C  0.75056550  0.49329376  0.17563870     0.81000
N963        N  0.78346435  0.49014034  0.15835763    -0.79700
C964        C  0.78386795  0.49073436  0.12342875     0.81100
N965        N  0.75093692  0.49513351  0.10565248    -0.81400
C966        C  0.71839084  0.99077086  0.37686402     0.78500
N967        N  0.71883482  0.99010408  0.34193289    -0.79800
C968        C  0.75167216  0.99341554  0.32465454     0.81000
N969        N  0.78440065  0.99774816  0.34271252    -0.79700
C970        C  0.78432567  0.99901409  0.37771928     0.81100
N971        N  0.75121635  0.99539000  0.39464579    -0.81400
C972        C  0.78508212  0.99318221  0.23229992    -0.15000
C973        C  0.75079150  0.99288575  0.21375998     0.07100
C974        C  0.71687173  0.49247464  0.23200698    -0.15000
C975        C  0.71721376  0.49241932  0.26798602    -0.15000
C976        C  0.75148572  0.99293935  0.28653045     0.07100
C977        C  0.78542165  0.99329334  0.26828313    -0.15000
H978        H  0.81176670  0.99358200  0.21905072     0.11100
H979        H  0.68998702  0.49216740  0.21853019     0.11100
H980        H  0.69052178  0.49220233  0.28122699     0.11100
H981        H  0.81230642  0.99364615  0.28175898     0.11100
C982        C  0.00095811  0.72022394  0.23174943    -0.15000
C983        C  0.50541279  0.75309271  0.21363399     0.07100
C984        C  0.50516980  0.78595899  0.23227767    -0.15000
C985        C  0.50066257  0.78595056  0.26809119    -0.15000
C986        C  0.49609644  0.75308380  0.28620466     0.07100
C987        C  0.99626579  0.72022457  0.26753236    -0.15000
H988        H  0.00095123  0.69438382  0.21828255     0.11100
H989        H  0.50869388  0.81178773  0.21924847     0.11100
H990        H  0.50064318  0.81179820  0.28153999     0.11100
H991        H  0.99277280  0.69437646  0.28053400     0.11100
C992        C  0.48259523  0.62074113  0.39949757    -0.15000
C993        C  0.47303417  0.62158258  0.43460690     0.07100
C994        C  0.96135339  0.65479951  0.44909492    -0.15000
C995        C  0.96160206  0.68685078  0.42956473    -0.15000
C996        C  0.47318873  0.68640955  0.39496482     0.07100
C997        C  0.48245792  0.65276469  0.37983392    -0.15000
H998        H  0.49161055  0.59552460  0.38754800     0.11100
H999        H  0.95396971  0.65642634  0.47607482     0.11100
H1000       H  0.95387151  0.71220625  0.44197820     0.11100
H1001       H  0.49131394  0.65136962  0.35323661     0.11100
C1002       C  0.95938067  0.82297795  0.42409637    -0.15000
C1003       C  0.48435406  0.81950289  0.39654964     0.07100
C1004       C  0.50883129  0.84842232  0.38920405    -0.15000
C1005       C  0.50881894  0.87995948  0.40979563    -0.15000
C1006       C  0.48351644  0.88329995  0.43725312     0.07100
C1007       C  0.95866495  0.85458399  0.44390637    -0.15000
H1008       H  0.94015627  0.80119572  0.43026794     0.11100
H1009       H  0.52852943  0.84622256  0.36817307     0.11100
H1010       H  0.52832091  0.90167561  0.40421204     0.11100
H1011       H  0.93907060  0.85617589  0.46507670     0.11100
C1012       C  0.01796996  0.62060707  0.10031933    -0.15000
C1013       C  0.52804057  0.62125830  0.06533429     0.07100
C1014       C  0.54002902  0.65424565  0.05092777    -0.15000
C1015       C  0.53965832  0.68629727  0.07041798    -0.15000
C1016       C  0.52764645  0.68606041  0.10489129     0.07100
C1017       C  0.01798034  0.65262118  0.11994281    -0.15000
H1018       H  0.00868615  0.59556902  0.11219767     0.11100
H1019       H  0.54780393  0.65571778  0.02404025     0.11100
H1020       H  0.54769665  0.71150090  0.05808365     0.11100
H1021       H  0.00877410  0.65140715  0.14644039     0.11100
C1022       C  0.54206985  0.85325258  0.05483200    -0.15000
C1023       C  0.51855967  0.88304244  0.06247427     0.07100
C1024       C  0.99441166  0.88080654  0.09085002    -0.15000
C1025       C  0.99430408  0.84927611  0.11145222    -0.15000
C1026       C  0.51748172  0.81930104  0.10321093     0.07100
C1027       C  0.54122982  0.82168054  0.07467640    -0.15000
H1028       H  0.56068781  0.85403536  0.03290356     0.11100
H1029       H  0.97594672  0.90340110  0.09716967     0.11100
H1030       H  0.97553875  0.84795439  0.13323232     0.11100
H1031       H  0.55943129  0.79907729  0.06775605     0.11100
C1032       C  0.85183531  0.02507964  0.44956222    -0.15000
C1033       C  0.88674947  0.01365517  0.43644999     0.07100
C1034       C  0.88796497  0.99872780  0.40310203    -0.15000
C1035       C  0.85480304  0.99478216  0.38354911    -0.15000
C1036       C  0.81977319  0.00493517  0.39731262     0.07100
C1037       C  0.81872647  0.02048016  0.43034933    -0.15000
H1038       H  0.84983331  0.03630741  0.47530673     0.11100
H1039       H  0.91441904  0.98947807  0.39241735     0.11100
H1040       H  0.85642753  0.98273487  0.35811576     0.11100
H1041       H  0.79221083  0.02889706  0.44149456     0.11100
C1042       C  0.64808532  0.97287589  0.44730754    -0.15000
C1043       C  0.61404051  0.98402891  0.43154333     0.07100
C1044       C  0.61429302  0.99576491  0.39710088    -0.15000
C1045       C  0.64811579  0.99696301  0.37897951    -0.15000
C1046       C  0.68236426  0.98724047  0.39524900     0.07100
C1047       C  0.68194534  0.97480303  0.42945483    -0.15000
H1048       H  0.64882067  0.46409035  0.47397909     0.11100
H1049       H  0.58848350  0.00468051  0.38442914     0.11100
H1050       H  0.64762188  0.00667181  0.35260144     0.11100
H1051       H  0.70785230  0.96685618  0.44253035     0.11100
C1052       C  0.85444295  0.47286964  0.05302468    -0.15000
C1053       C  0.88823495  0.98446098  0.06861458     0.07100
C1054       C  0.88777938  0.99645126  0.10297179    -0.15000
C1055       C  0.85397135  0.99749686  0.12115560    -0.15700
C1056       C  0.81994213  0.48735484  0.10502834     0.07100
C1057       C  0.82058924  0.47464096  0.07093095    -0.15000
H1058       H  0.85385941  0.46384476  0.02643296     0.11100
H1059       H  0.91339143  0.00569104  0.11551901     0.11100
H1060       H  0.85427584  0.00741683  0.14745505     0.11100
H1061       H  0.79485394  0.46635686  0.05797787     0.11100
C1062       C  0.61409642  0.49805431  0.09704463    -0.15000
C1063       C  0.61512960  0.51282192  0.06361467     0.07100
C1064       C  0.64989083  0.52419392  0.05050971    -0.15000
C1065       C  0.68303261  0.51973055  0.06980269    -0.15000
C1066       C  0.68219452  0.50437170  0.10292977     0.07100
C1067       C  0.64729803  0.49425180  0.11668928    -0.15000
H1068       H  0.58776515  0.48885961  0.10773618     0.11100
H1069       H  0.65177032  0.53530633  0.02471445     0.11100
H1070       H  0.70941506  0.02811891  0.05864070     0.11100
H1071       H  0.64582710  0.48235188  0.14219319     0.11100
O1072       O  0.55362127  0.50898240  0.94405859    -0.81800
O1073       O  0.94805161  0.99264785  0.95258075    -0.81800
O1074       O  0.51172112  0.93656582  0.96425256    -0.81800
O1075       O  0.96759223  0.58862541  0.98766821    -0.81800
O1076       O  0.95303157  0.92247726  0.97650715    -0.81900
O1077       O  0.50224372  0.56475849  0.94666386    -0.81800
O1078       O  0.91960035  0.53156002  0.98750006    -0.81800
O1079       O  0.57789597  0.97134417  0.98120071    -0.81900
C1080       C  0.57963839  0.98710451  0.95240839     1.07900
C1081       C  0.92052448  0.01370477  0.95920032     1.07800
C1082       C  0.98276474  0.91551195  0.96014604     1.07900
C1083       C  0.98008624  0.58939177  0.95697285     1.07800
O1084       O  0.53374948  0.58833740  0.51228672    -0.81800
O1085       O  0.99054603  0.93677173  0.53563628    -0.81900
O1086       O  0.55409021  0.99192345  0.54737064    -0.81800
O1087       O  0.94829036  0.50939945  0.55598270    -0.81800
O1088       O  0.92430234  0.97206706  0.51875330    -0.81900
O1089       O  0.58212072  0.53086459  0.51253313    -0.81800
O1090       O  0.99928829  0.56468763  0.55329031    -0.81800
O1091       O  0.54925706  0.92180295  0.52337102    -0.81900
Co1092     Co  0.54046199  0.54593278  0.97927793     1.51500
Co1093     Co  0.97185405  0.96731167  0.49219994     1.51700
Co1094     Co  0.53033267  0.96692340  0.00770971     1.51600
Co1095     Co  0.96119628  0.54624075  0.52071248     1.51500
O1096       O  0.50097163  0.51306527  0.00001410    -1.43800
C1097       C  0.52124543  0.58916293  0.54297585     1.07800
C1098       C  0.01948194  0.91528629  0.53970343     1.07900
C1099       C  0.58137697  0.51292390  0.54080288     1.07800
C1100       C  0.92249174  0.98765172  0.54762547     1.07800
C1101       C  0.51663736  0.78495252  0.62310290     0.78500
N1102       N  0.51053413  0.78493418  0.65763687    -0.79800
C1103       C  0.51081893  0.75303521  0.67565500     0.81000
N1104       N  0.51669296  0.72107779  0.65857727    -0.79700
C1105       C  0.52284136  0.72082313  0.62402375     0.81100
N1106       N  0.52295263  0.75289413  0.60664732    -0.81400
C1107       C  0.48504052  0.78510559  0.87674330     0.78500
N1108       N  0.47830343  0.75319907  0.89319550    -0.79800
C1109       C  0.47813950  0.72112439  0.87581551     0.81000
N1110       N  0.48432760  0.72127331  0.84126128    -0.79700
C1111       C  0.49063467  0.75309233  0.82419778     0.81100
N1112       N  0.49128936  0.78495025  0.84223882    -0.81400
C1113       C  0.71775375  0.49861181  0.62257178     0.78500
N1114       N  0.71772354  0.49740730  0.65758548    -0.79800
C1115       C  0.75056550  0.49329370  0.67563867     0.81000
N1116       N  0.78346437  0.49014027  0.65835762    -0.79700
C1117       C  0.78386797  0.49073430  0.62342872     0.81100
N1118       N  0.75093695  0.49513346  0.60565244    -0.81400
C1119       C  0.71839076  0.99077099  0.87686406     0.78500
N1120       N  0.71883478  0.99010408  0.84193294    -0.79800
C1121       C  0.75167213  0.99341549  0.82465461     0.81000
N1122       N  0.78440057  0.99774806  0.84271263    -0.79700
C1123       C  0.78432558  0.99901408  0.87771937     0.81100
N1124       N  0.75121623  0.99539017  0.89464586    -0.81400
C1125       C  0.78508212  0.99318218  0.73229998    -0.15000
C1126       C  0.75079151  0.99288569  0.71376000     0.07100
C1127       C  0.71687169  0.49247459  0.73200694    -0.15000
C1128       C  0.71721376  0.49241928  0.76798600    -0.15000
C1129       C  0.75148570  0.99293928  0.78653050     0.07100
C1130       C  0.78542170  0.99329331  0.76828322    -0.15000
H1131       H  0.81176669  0.99358205  0.71905081     0.11100
H1132       H  0.68998704  0.49216737  0.71853019     0.11100
H1133       H  0.69052178  0.49220231  0.78122698     0.11100
H1134       H  0.81230634  0.99364621  0.78175904     0.11100
C1135       C  0.00095824  0.72022388  0.73174943    -0.15000
C1136       C  0.50541292  0.75309266  0.71363399     0.07100
C1137       C  0.50516993  0.78595892  0.73227766    -0.15000
C1138       C  0.50066264  0.78595055  0.76809116    -0.15000
C1139       C  0.49609641  0.75308379  0.78620464     0.07100
C1140       C  0.99626591  0.72022455  0.76753236    -0.15000
H1141       H  0.00095138  0.69438379  0.71828257     0.11100
H1142       H  0.50869404  0.81178771  0.71924841     0.11100
H1143       H  0.50064331  0.81179822  0.78153995     0.11100
H1144       H  0.99277292  0.69437645  0.78053402     0.11100
C1145       C  0.48259534  0.62074112  0.89949758    -0.15000
C1146       C  0.47303422  0.62158255  0.93460691     0.07100
C1147       C  0.96135350  0.65479958  0.94909500    -0.15000
C1148       C  0.96160220  0.68685083  0.92956481    -0.15000
C1149       C  0.47318883  0.68640954  0.89496490     0.07100
C1150       C  0.48245802  0.65276471  0.87983396    -0.15000
H1151       H  0.49161071  0.59552465  0.88754797     0.11100
H1152       H  0.95396979  0.65642639  0.97607491     0.11100
H1153       H  0.95387163  0.71220635  0.94197827     0.11100
H1154       H  0.49131403  0.65136969  0.85323667     0.11100
C1155       C  0.95938062  0.82297801  0.92409636    -0.15000
C1156       C  0.48435398  0.81950289  0.89654964     0.07100
C1157       C  0.50883118  0.84842234  0.88920408    -0.15000
C1158       C  0.50881884  0.87995956  0.90979558    -0.15000
C1159       C  0.48351643  0.88329999  0.93725318     0.07100
C1160       C  0.95866493  0.85458407  0.94390634    -0.15000
H1161       H  0.94015619  0.80119578  0.93026789     0.11100
H1162       H  0.52852938  0.84622256  0.86817305     0.11100
H1163       H  0.52832073  0.90167569  0.90421189     0.11100
H1164       H  0.93907050  0.85617602  0.96507670     0.11100
C1165       C  0.01796999  0.62060704  0.60031932    -0.15000
C1166       C  0.52804062  0.62125825  0.56533429     0.07100
C1167       C  0.54002900  0.65424560  0.55092774    -0.15000
C1168       C  0.53965837  0.68629719  0.57041795    -0.15000
C1169       C  0.52764651  0.68606037  0.60489126     0.07100
C1170       C  0.01798041  0.65262116  0.61994275    -0.15000
H1171       H  0.00868617  0.59556904  0.61219764     0.11100
H1172       H  0.54780383  0.65571772  0.52404020     0.11100
H1173       H  0.54769674  0.71150086  0.55808356     0.11100
H1174       H  0.00877414  0.65140710  0.64644043     0.11100
C1175       C  0.54206996  0.85325259  0.55483198    -0.15000
C1176       C  0.51855975  0.88304244  0.56247426     0.07100
C1177       C  0.99441170  0.88080652  0.59085004    -0.15000
C1178       C  0.99430408  0.84927606  0.61145226    -0.15000
C1179       C  0.51748183  0.81930107  0.60321095     0.07100
C1180       C  0.54122989  0.82168050  0.57467637    -0.15000
H1181       H  0.56068788  0.85403538  0.53290360     0.11100
H1182       H  0.97594674  0.90340109  0.59716970     0.11100
H1183       H  0.97553883  0.84795435  0.63323223     0.11100
H1184       H  0.55943127  0.79907731  0.56775602     0.11100
C1185       C  0.85183525  0.02507963  0.94956230    -0.15000
C1186       C  0.88674939  0.01365511  0.93645000     0.07100
C1187       C  0.88796483  0.99872776  0.90310206    -0.15000
C1188       C  0.85480294  0.99478211  0.88354915    -0.15000
C1189       C  0.81977310  0.00493518  0.89731269     0.07100
C1190       C  0.81872642  0.02048028  0.93034935    -0.15000
H1191       H  0.84983326  0.03630732  0.97530674     0.11100
H1192       H  0.91441895  0.98947802  0.89241731     0.11100
H1193       H  0.85642741  0.98273485  0.85811581     0.11100
H1194       H  0.79221084  0.02889728  0.94149456     0.11100
C1195       C  0.64808528  0.97287583  0.94730747    -0.15000
C1196       C  0.61404050  0.98402892  0.93154328     0.07100
C1197       C  0.61429297  0.99576501  0.89710082    -0.15000
C1198       C  0.64811575  0.99696300  0.87897946    -0.15000
C1199       C  0.68236419  0.98724047  0.89524897     0.07100
C1200       C  0.68194534  0.97480296  0.92945479    -0.15000
H1201       H  0.64882080  0.46409048  0.97397912     0.11100
H1202       H  0.58848358  0.00468067  0.88442912     0.11100
H1203       H  0.64762186  0.00667179  0.85260138     0.11100
H1204       H  0.70785221  0.96685616  0.94253027     0.11100
C1205       C  0.85444299  0.47286960  0.55302468    -0.15000
C1206       C  0.88823503  0.98446091  0.56861468     0.07100
C1207       C  0.88777952  0.99645121  0.60297193    -0.15000
C1208       C  0.85397143  0.99749678  0.62115568    -0.15700
C1209       C  0.81994217  0.48735479  0.60502832     0.07100
C1210       C  0.82058925  0.47464095  0.57093090    -0.15000
H1211       H  0.85385948  0.46384476  0.52643294     0.11100
H1212       H  0.91339147  0.00569099  0.61551906     0.11100
H1213       H  0.85427589  0.00741682  0.64745517     0.11100
H1214       H  0.79485401  0.46635693  0.55797779     0.11100
C1215       C  0.61409648  0.49805426  0.59704457    -0.15000
C1216       C  0.61512963  0.51282188  0.56361462     0.07100
C1217       C  0.64989083  0.52419390  0.55050965    -0.15000
C1218       C  0.68303260  0.51973065  0.56980266    -0.15000
C1219       C  0.68219456  0.50437170  0.60292971     0.07100
C1220       C  0.64729809  0.49425173  0.61668921    -0.15000
H1221       H  0.58776517  0.48885955  0.60773615     0.11100
H1222       H  0.65177028  0.53530626  0.52471436     0.11100
H1223       H  0.70941514  0.02811881  0.55864066     0.11100
H1224       H  0.64582724  0.48235181  0.64219312     0.11100
loop_ 
_geom_bond_atom_site_label_1 
_geom_bond_atom_site_label_2 
_geom_bond_distance 
_geom_bond_site_symmetry_2 
_ccdc_geom_bond_type 
O1          Co21   1.982       .  S
O1          C315   1.259   1_545  A
O2         Co175   1.974       .  S
O2           C10   1.270       .  A
O3          Co23   2.123       .  S
O3          C623   1.299   1_455  A
O4         Co177   2.031       .  S
O4           C12   1.275       .  A
O5         Co175   1.879       .  S
O5           C11   1.262       .  A
O6          Co21   1.966       .  S
O6          C624   1.262   1_455  A
O7         Co177   2.024       .  S
O7          C316   1.279       .  A
O8          Co23   1.994       .  S
O8            C9   1.260       .  A
C9          O307   1.259       .  A
C9          C125   1.476       .  S
C10         O313   1.279       .  A
C10         C115   1.480       .  S
C11         O615   1.299       .  A
C11         C700   1.479       .  S
C12         O618   1.262       .  A
C12         C687   1.483       .  S
O13        Co174   2.030   1_554  S
O13          C26   1.275       .  A
O14         Co22   2.120   1_554  S
O14          C27   1.298       .  A
O15        Co176   1.975       .  S
O15         C334   1.270       .  A
O16         Co24   1.983       .  S
O16         C335   1.259   1_545  A
O17         Co22   1.994   1_554  S
O17          C29   1.260       .  A
O18        Co174   2.025   1_554  S
O18          C28   1.279       .  A
O19         Co24   1.964       .  S
O19         C638   1.262       .  A
O20        Co176   1.880       .  S
O20         C639   1.263       .  A
Co21        O166   2.030       .  S
Co21        O171   2.025       .  S
Co21         O25   2.029       .  S
Co22        O155   1.974       .  S
Co22        O158   1.879       .  S
Co22       O1096   2.000   1_556  S
Co23        O168   1.975       .  S
Co23        O173   1.880       .  S
Co23        O331   2.002       .  S
Co24        O157   2.031   1_554  S
Co24        O160   2.024   1_554  S
Co24        O790   2.030       .  S
O25       Co1093   2.000   1_445  S
O25        Co329   2.002   1_545  S
O25        Co789   2.030   1_455  S
C26         O631   1.262   1_455  A
C26          C95   1.483       .  S
C27         O632   1.263       .  A
C27         C717   1.477       .  S
C28         O321   1.270   1_545  A
C28         C145   1.481       .  S
C29         O322   1.259       .  A
C29         C135   1.476       .  S
C30         C108   1.478       .  S
C30          N31   1.359       .  A
C30          N35   1.357       .  A
N31          C32   1.363       .  A
C32          C65   1.488       .  S
C32          N33   1.363       .  A
N33          C34   1.360       .  A
C34          C98   1.486       .  S
C34          N35   1.356       .  A
C36          C85   1.478       .  S
C36          N37   1.357       .  A
C36          N41   1.359       .  A
N37          C38   1.357       .  A
C38          C78   1.487       .  S
C38          N39   1.360       .  A
N39          C40   1.363       .  A
C40          C68   1.488       .  S
C40          N41   1.363       .  A
C42         C148   1.481   1_565  S
C42          N43   1.359       .  A
C42          N47   1.360       .  A
N43          C44   1.360       .  A
C44         C361   1.478       .  S
C44          N45   1.357       .  A
N45          C46   1.355       .  A
C46         C138   1.477       .  S
C46          N47   1.359       .  A
C48         C128   1.478       .  S
C48          N49   1.355       .  A
C48          N53   1.359       .  A
N49          C50   1.357       .  A
C50          C58   1.479       .  S
C50          N51   1.360       .  A
N51          C52   1.359       .  A
C52         C118   1.480       .  S
C52          N53   1.360       .  A
C54          C55   1.407       .  A
C54          C59   1.395       .  A
C54          H60   1.083       .  S
C55         C350   1.478       .  S
C55         C362   1.404       .  A
C56          C57   1.395       .  A
C56         C361   1.404       .  A
C56          H61   1.083       .  S
C57         C364   1.407       .  A
C57          H62   1.083       .  S
C58          C59   1.404       .  A
C58         C363   1.407       .  A
C59          H63   1.083       .  S
C64          C69   1.400       .  A
C64         C677   1.407       .  A
C64          H70   1.083       .  S
C65          C66   1.407       .  A
C65         C676   1.407       .  A
C66          C67   1.400       .  A
C66          H71   1.083       .  S
C67          C68   1.407   1_455  A
C67          H72   1.083       .  S
C68         C681   1.407       .  A
C69         C680   1.407       .  A
C69          H73   1.083       .  S
C74          C75   1.407       .  A
C74          C79   1.401       .  A
C74          H80   1.083       .  S
C75         C624   1.483       .  S
C75         C688   1.404       .  A
C76          C77   1.399       .  A
C76         C687   1.404       .  A
C76          H81   1.083       .  S
C77         C690   1.408       .  A
C77          H82   1.083       .  S
C78          C79   1.406       .  A
C78         C689   1.408       .  A
C79          H83   1.083       .  S
C84          C89   1.392       .  A
C84         C697   1.401       .  A
C84          H90   1.083       .  S
C85          C86   1.408   1_655  A
C85         C696   1.401       .  A
C86          C87   1.406       .  A
C86          H91   1.083       .  S
C87          C88   1.406   1_455  A
C87          H92   1.083       .  S
C88         C623   1.479       .  S
C88         C701   1.405       .  A
C89         C700   1.405       .  A
C89          H93   1.083       .  S
C94          C99   1.400       .  A
C94         C707   1.407       .  A
C94         H100   1.083       .  S
C95          C96   1.404       .  A
C95         C706   1.407       .  A
C96          C97   1.399       .  A
C96         H101   1.083       .  S
C97          C98   1.408       .  A
C97         H102   1.083       .  S
C98         C711   1.405       .  A
C99         C710   1.405       .  A
C99         H103   1.083       .  S
C104        C105   1.404       .  A
C104        C109   1.392       .  A
C104        H110   1.083       .  S
C105        C639   1.477       .  S
C105        C718   1.405   1_455  A
C106        C107   1.406       .  A
C106        C717   1.405       .  A
C106        H111   1.083       .  S
C107        C720   1.408       .  A
C107        H112   1.083       .  S
C108        C109   1.402       .  A
C108        C719   1.408   1_455  A
C109        H113   1.083       .  S
C114        C115   1.406       .  A
C114        C119   1.396       .  A
C114        H120   1.083       .  S
C115        C116   1.406       .  A
C116        C117   1.401       .  A
C116        H121   1.083       .  S
C117        C118   1.406       .  A
C117        H122   1.083       .  S
C118        C119   1.404       .  A
C119        H123   1.083       .  S
C124        C125   1.406       .  A
C124        C129   1.396       .  A
C124        H436   1.083       .  S
C125        C126   1.404       .  A
C126        C127   1.399       .  A
C126        H131   1.083       .  S
C127        C128   1.407       .  A
C127        H132   1.083       .  S
C128        C129   1.403       .  A
C129        H133   1.083       .  S
H130        C430   1.083       .  S
C134        C139   1.396       .  A
C134        C441   1.406       .  A
C134        H140   1.083       .  S
C135        C136   1.404       .  A
C135        C440   1.406       .  A
C136        C137   1.399       .  A
C136        H141   1.083       .  S
C137        C444   1.407       .  A
C137        H142   1.083       .  S
C138        C139   1.403       .  A
C138        C443   1.407       .  A
C139        H143   1.083       .  S
C144        C145   1.406   1_565  A
C144        C149   1.402       .  A
C144        H150   1.083       .  S
C145        C146   1.406       .  A
C146        C147   1.395       .  A
C146        H151   1.083       .  S
C147        C148   1.404       .  A
C147        H458   1.083       .  S
C148        C149   1.407   1_545  A
C149        H153   1.083       .  S
H152        C453   1.083       .  S
O154       Co174   1.982       .  S
O154        C468   1.259   1_545  A
O155        C163   1.270       .  A
O156       Co176   2.123   1_556  S
O156        C776   1.299   1_455  A
O157        C165   1.275       .  A
O158        C164   1.262       .  A
O159       Co174   1.966       .  S
O159        C777   1.262   1_455  A
O160        C469   1.279       .  A
O161       Co176   1.994   1_556  S
O161        C162   1.260       .  A
C162        O460   1.259       .  A
C162        C278   1.476       .  S
C163        O466   1.279       .  A
C163        C268   1.480       .  S
C164        O768   1.299       .  A
C164        C853   1.479       .  S
C165        O771   1.262       .  A
C165        C840   1.483       .  S
O166        C179   1.275       .  A
O167       Co175   2.120       .  S
O167        C180   1.298       .  A
O168        C487   1.270       .  A
O169       Co177   1.983       .  S
O169        C488   1.259   1_545  A
O170       Co175   1.994       .  S
O170        C182   1.260       .  A
O171        C181   1.279       .  A
O172       Co177   1.964       .  S
O172        C791   1.262       .  A
O173        C792   1.263       .  A
Co174       O178   2.029   1_556  S
Co175       O943   2.000       .  S
Co176       O484   2.002       .  S
Co177       O637   2.030       .  S
O178       Co940   2.000   1_444  S
O178       Co482   2.002   1_545  S
O178       Co636   2.030   1_455  S
C179        O784   1.262   1_455  A
C179        C248   1.483       .  S
C180        O785   1.263       .  A
C180        C870   1.477       .  S
C181        O474   1.270   1_545  A
C181        C298   1.481       .  S
C182        O475   1.259       .  A
C182        C288   1.476       .  S
C183        C261   1.478       .  S
C183        N184   1.359       .  A
C183        N188   1.357       .  A
N184        C185   1.363       .  A
C185        C218   1.488       .  S
C185        N186   1.363       .  A
N186        C187   1.360       .  A
C187        C251   1.486       .  S
C187        N188   1.356       .  A
C189        C238   1.478       .  S
C189        N190   1.357       .  A
C189        N194   1.359       .  A
N190        C191   1.357       .  A
C191        C231   1.487       .  S
C191        N192   1.360       .  A
N192        C193   1.363       .  A
C193        C221   1.488       .  S
C193        N194   1.363       .  A
C195        C301   1.481   1_565  S
C195        N196   1.359       .  A
C195        N200   1.360       .  A
N196        C197   1.360       .  A
C197        C514   1.478       .  S
C197        N198   1.357       .  A
N198        C199   1.355       .  A
C199        C291   1.477       .  S
C199        N200   1.359       .  A
C201        C281   1.478       .  S
C201        N202   1.355       .  A
C201        N206   1.359       .  A
N202        C203   1.357       .  A
C203        C211   1.479       .  S
C203        N204   1.360       .  A
N204        C205   1.359       .  A
C205        C271   1.480       .  S
C205        N206   1.360       .  A
C207        C208   1.407       .  A
C207        C212   1.395       .  A
C207        H213   1.083       .  S
C208        C503   1.478       .  S
C208        C515   1.404       .  A
C209        C514   1.404       .  A
C209        C210   1.395       .  A
C209        H214   1.083       .  S
C210        C517   1.407       .  A
C210        H215   1.083       .  S
C211        C516   1.407       .  A
C211        C212   1.404       .  A
C212        H216   1.083       .  S
C217        C830   1.407       .  A
C217        C222   1.400       .  A
C217        H223   1.083       .  S
C218        C829   1.407       .  A
C218        C219   1.407       .  A
C219        C220   1.400       .  A
C219        H224   1.083       .  S
C220        C221   1.407   1_455  A
C220        H225   1.083       .  S
C221        C834   1.407       .  A
C222        C833   1.407       .  A
C222        H226   1.083       .  S
C227        C228   1.407       .  A
C227        C232   1.401       .  A
C227        H233   1.083       .  S
C228        C777   1.483       .  S
C228        C841   1.404       .  A
C229        C840   1.404       .  A
C229        C230   1.399       .  A
C229        H234   1.083       .  S
C230        C843   1.408       .  A
C230        H235   1.083       .  S
C231        C842   1.408       .  A
C231        C232   1.406       .  A
C232        H236   1.083       .  S
C237        C850   1.401       .  A
C237        C242   1.392       .  A
C237        H243   1.083       .  S
C238        C849   1.401       .  A
C238        C239   1.408   1_655  A
C239        C240   1.406       .  A
C239        H244   1.083       .  S
C240        C241   1.406   1_455  A
C240        H245   1.083       .  S
C241        C776   1.479       .  S
C241        C854   1.405       .  A
C242        C853   1.405       .  A
C242        H246   1.083       .  S
C247        C860   1.407       .  A
C247        C252   1.400       .  A
C247        H253   1.083       .  S
C248        C859   1.407       .  A
C248        C249   1.404       .  A
C249        C250   1.399       .  A
C249        H254   1.083       .  S
C250        C251   1.408       .  A
C250        H255   1.083       .  S
C251        C864   1.405       .  A
C252        C863   1.405       .  A
C252        H256   1.083       .  S
C257        C258   1.404       .  A
C257        C262   1.392       .  A
C257        H263   1.083       .  S
C258        C792   1.477       .  S
C258        C871   1.405   1_455  A
C259        C870   1.405       .  A
C259        C260   1.406       .  A
C259        H264   1.083       .  S
C260        C873   1.408       .  A
C260        H265   1.083       .  S
C261        C872   1.408   1_455  A
C261        C262   1.402       .  A
C262        H266   1.083       .  S
C267        C268   1.406       .  A
C267        C272   1.396       .  A
C267        H273   1.083       .  S
C268        C269   1.406       .  A
C269        C270   1.401       .  A
C269        H274   1.083       .  S
C270        C271   1.406       .  A
C270        H275   1.083       .  S
C271        C272   1.404       .  A
C272        H276   1.083       .  S
C277        C278   1.406       .  A
C277        C282   1.396       .  A
C277        H589   1.083       .  S
C278        C279   1.404       .  A
C279        C280   1.399       .  A
C279        H284   1.083       .  S
C280        C281   1.407       .  A
C280        H285   1.083       .  S
C281        C282   1.403       .  A
C282        H286   1.083       .  S
H283        C583   1.083       .  S
C287        C594   1.406       .  A
C287        C292   1.396       .  A
C287        H293   1.083       .  S
C288        C593   1.406       .  A
C288        C289   1.404       .  A
C289        C290   1.399       .  A
C289        H294   1.083       .  S
C290        C597   1.407       .  A
C290        H295   1.083       .  S
C291        C596   1.407       .  A
C291        C292   1.403       .  A
C292        H296   1.083       .  S
C297        C298   1.406   1_565  A
C297        C302   1.402       .  A
C297        H303   1.083       .  S
C298        C299   1.406       .  A
C299        C300   1.395       .  A
C299        H304   1.083       .  S
C300        C301   1.404       .  A
C300        H611   1.083       .  S
C301        C302   1.407   1_545  A
C302        H306   1.083       .  S
H305        C606   1.083       .  S
O307       Co327   1.982       .  S
O308       Co481   1.974       .  S
O308        C316   1.270   1_565  A
O309       Co329   2.123       .  S
O309        C929   1.299   1_455  A
O310       Co483   2.031       .  S
O310        C318   1.275       .  A
O311       Co481   1.879       .  S
O311        C317   1.262       .  A
O312       Co327   1.966       .  S
O312        C930   1.262   1_455  A
O313       Co483   2.024       .  S
O314       Co329   1.994       .  S
O314        C315   1.260       .  A
C315        C431   1.476       .  S
C316        C421   1.480       .  S
C317        O921   1.299       .  A
C317       C1006   1.479       .  S
C318        O924   1.262       .  A
C318        C993   1.483       .  S
O319       Co480   2.030   1_554  S
O319        C332   1.275       .  A
O320       Co328   2.120   1_554  S
O320        C333   1.298       .  A
O321       Co482   1.975       .  S
O322       Co330   1.983       .  S
O323       Co328   1.994   1_554  S
O323        C335   1.260       .  A
O324       Co480   2.025   1_554  S
O324        C334   1.279       .  A
O325       Co330   1.964       .  S
O325        C944   1.262       .  A
O326       Co482   1.880       .  S
O326        C945   1.263       .  A
Co327       O472   2.030       .  S
Co327       O477   2.025       .  S
Co327       O331   2.029       .  S
Co328       O461   1.974       .  S
Co328       O464   1.879       .  S
Co328       O790   2.000   1_566  S
Co329       O474   1.975       .  S
Co329       O479   1.880       .  S
Co330       O463   2.031   1_554  S
Co330       O466   2.024   1_554  S
Co330      O1096   2.030       .  S
O331       Co787   2.000   1_455  S
O331      Co1095   2.030   1_455  S
C332        O937   1.262   1_455  A
C332        C401   1.483       .  S
C333        O938   1.263       .  A
C333       C1023   1.477       .  S
C334        C451   1.481       .  S
C335        C441   1.476       .  S
C336        C414   1.478       .  S
C336        N337   1.359       .  A
C336        N341   1.357       .  A
N337        C338   1.363       .  A
C338        C371   1.488       .  S
C338        N339   1.363       .  A
N339        C340   1.360       .  A
C340        C404   1.486       .  S
C340        N341   1.356       .  A
C342        C391   1.478       .  S
C342        N343   1.357       .  A
C342        N347   1.359       .  A
N343        C344   1.357       .  A
C344        C384   1.487       .  S
C344        N345   1.360       .  A
N345        C346   1.363       .  A
C346        C374   1.488       .  S
C346        N347   1.363       .  A
C348        C454   1.481       .  S
C348        N349   1.359       .  A
C348        N353   1.360       .  A
N349        C350   1.360       .  A
C350        N351   1.357       .  A
N351        C352   1.355       .  A
C352        C444   1.477       .  S
C352        N353   1.359       .  A
C354        C434   1.478       .  S
C354        N355   1.355       .  A
C354        N359   1.359       .  A
N355        C356   1.357       .  A
C356        C364   1.479       .  S
C356        N357   1.360       .  A
N357        C358   1.359       .  A
C358        C424   1.480   1_565  S
C358        N359   1.360       .  A
C360        C361   1.407       .  A
C360        C365   1.395       .  A
C360        H366   1.083       .  S
C362        C363   1.395       .  A
C362        H367   1.083       .  S
C363        H368   1.083       .  S
C364        C365   1.404       .  A
C365        H369   1.083       .  S
C370        C983   1.407       .  A
C370        C375   1.400       .  A
C370        H376   1.083       .  S
C371        C982   1.407       .  A
C371        C372   1.407       .  A
C372        C373   1.400       .  A
C372        H377   1.083       .  S
C373        C374   1.407   1_455  A
C373        H378   1.083       .  S
C374        C987   1.407       .  A
C375        C986   1.407       .  A
C375        H379   1.083       .  S
C380        C381   1.407       .  A
C380        C385   1.401       .  A
C380        H386   1.083       .  S
C381        C930   1.483       .  S
C381        C994   1.404       .  A
C382        C993   1.404       .  A
C382        C383   1.399       .  A
C382        H387   1.083       .  S
C383        C996   1.408       .  A
C383        H388   1.083       .  S
C384        C995   1.408       .  A
C384        C385   1.406       .  A
C385        H389   1.083       .  S
C390       C1003   1.401       .  A
C390        C395   1.392       .  A
C390        H396   1.083       .  S
C391       C1002   1.401       .  A
C391        C392   1.408   1_655  A
C392        C393   1.406       .  A
C392        H397   1.083       .  S
C393        C394   1.406   1_455  A
C393        H398   1.083       .  S
C394        C929   1.479       .  S
C394       C1007   1.405       .  A
C395       C1006   1.405       .  A
C395        H399   1.083       .  S
C400       C1013   1.407       .  A
C400        C405   1.400       .  A
C400        H406   1.083       .  S
C401       C1012   1.407       .  A
C401        C402   1.404       .  A
C402        C403   1.399       .  A
C402        H407   1.083       .  S
C403        C404   1.408       .  A
C403        H408   1.083       .  S
C404       C1017   1.405       .  A
C405       C1016   1.405       .  A
C405        H409   1.083       .  S
C410        C411   1.404       .  A
C410        C415   1.392       .  A
C410        H416   1.083       .  S
C411        C945   1.477       .  S
C411       C1024   1.405   1_455  A
C412       C1023   1.405       .  A
C412        C413   1.406       .  A
C412        H417   1.083       .  S
C413       C1026   1.408       .  A
C413        H418   1.083       .  S
C414       C1025   1.408   1_455  A
C414        C415   1.402       .  A
C415        H419   1.083       .  S
C420        C421   1.406       .  A
C420        C425   1.396       .  A
C420        H426   1.083       .  S
C421        C422   1.406   1_545  A
C422        C423   1.401       .  A
C422        H427   1.083       .  S
C423        C424   1.406   1_565  A
C423        H428   1.083       .  S
C424        C425   1.404       .  A
C425        H429   1.083       .  S
C430        C431   1.406       .  A
C430        C435   1.396       .  A
C431        C432   1.404       .  A
C432        C433   1.399       .  A
C432        H437   1.083   1_565  S
C433        C434   1.407       .  A
C433        H438   1.083   1_565  S
C434        C435   1.403       .  A
C435        H439   1.083       .  S
C440        C445   1.396       .  A
C440        H446   1.083       .  S
C441        C442   1.404       .  A
C442        C443   1.399       .  A
C442        H447   1.083   1_565  S
C443        H448   1.083   1_565  S
C444        C445   1.403       .  A
C445        H449   1.083       .  S
C450        C451   1.406       .  A
C450        C455   1.402       .  A
C450        H456   1.083       .  S
C451        C452   1.406       .  A
C452        C453   1.395       .  A
C452        H457   1.083       .  S
C453        C454   1.404       .  A
C454        C455   1.407       .  A
C455        H459   1.083       .  S
O460       Co480   1.982       .  S
O461        C469   1.270   1_565  A
O462       Co482   2.123   1_556  S
O462       C1082   1.299   1_455  A
O463        C471   1.275       .  A
O464        C470   1.262       .  A
O465       Co480   1.966       .  S
O465       C1083   1.262   1_455  A
O467       Co482   1.994   1_556  S
O467        C468   1.260       .  A
C468        C584   1.476       .  S
C469        C574   1.480       .  S
C470       O1074   1.299       .  A
C470       C1159   1.479       .  S
C471       O1077   1.262       .  A
C471       C1146   1.483       .  S
O472        C485   1.275       .  A
O473       Co481   2.120       .  S
O473        C486   1.298       .  A
O475       Co483   1.983       .  S
O476       Co481   1.994       .  S
O476        C488   1.260       .  A
O477        C487   1.279       .  A
O478       Co483   1.964       .  S
O478       C1097   1.262       .  A
O479       C1098   1.263       .  A
Co480       O484   2.029   1_556  S
Co481       O637   2.000   1_565  S
Co483       O943   2.030       .  S
O484       Co634   2.000   1_454  S
O484       Co942   2.030   1_455  S
C485       O1090   1.262   1_455  A
C485        C554   1.483       .  S
C486       O1091   1.263       .  A
C486       C1176   1.477       .  S
C487        C604   1.481       .  S
C488        C594   1.476       .  S
C489        C567   1.478       .  S
C489        N490   1.359       .  A
C489        N494   1.357       .  A
N490        C491   1.363       .  A
C491        C524   1.488       .  S
C491        N492   1.363       .  A
N492        C493   1.360       .  A
C493        C557   1.486       .  S
C493        N494   1.356       .  A
C495        C544   1.478       .  S
C495        N496   1.357       .  A
C495        N500   1.359       .  A
N496        C497   1.357       .  A
C497        C537   1.487       .  S
C497        N498   1.360       .  A
N498        C499   1.363       .  A
C499        C527   1.488       .  S
C499        N500   1.363       .  A
C501        C607   1.481       .  S
C501        N502   1.359       .  A
C501        N506   1.360       .  A
N502        C503   1.360       .  A
C503        N504   1.357       .  A
N504        C505   1.355       .  A
C505        C597   1.477       .  S
C505        N506   1.359       .  A
C507        C587   1.478       .  S
C507        N508   1.355       .  A
C507        N512   1.359       .  A
N508        C509   1.357       .  A
C509        C517   1.479       .  S
C509        N510   1.360       .  A
N510        C511   1.359       .  A
C511        C577   1.480   1_565  S
C511        N512   1.360       .  A
C513        C514   1.407       .  A
C513        C518   1.395       .  A
C513        H519   1.083       .  S
C515        C516   1.395       .  A
C515        H520   1.083       .  S
C516        H521   1.083       .  S
C517        C518   1.404       .  A
C518        H522   1.083       .  S
C523       C1136   1.407       .  A
C523        C528   1.400       .  A
C523        H529   1.083       .  S
C524       C1135   1.407       .  A
C524        C525   1.407       .  A
C525        C526   1.400       .  A
C525        H530   1.083       .  S
C526        C527   1.407   1_455  A
C526        H531   1.083       .  S
C527       C1140   1.407       .  A
C528       C1139   1.407       .  A
C528        H532   1.083       .  S
C533        C534   1.407       .  A
C533        C538   1.401       .  A
C533        H539   1.083       .  S
C534       C1083   1.483       .  S
C534       C1147   1.404       .  A
C535       C1146   1.404       .  A
C535        C536   1.399       .  A
C535        H540   1.083       .  S
C536       C1149   1.408       .  A
C536        H541   1.083       .  S
C537       C1148   1.408       .  A
C537        C538   1.406       .  A
C538        H542   1.083       .  S
C543       C1156   1.401       .  A
C543        C548   1.392       .  A
C543        H549   1.083       .  S
C544       C1155   1.401       .  A
C544        C545   1.408   1_655  A
C545        C546   1.406       .  A
C545        H550   1.083       .  S
C546        C547   1.406   1_455  A
C546        H551   1.083       .  S
C547       C1082   1.479       .  S
C547       C1160   1.405       .  A
C548       C1159   1.405       .  A
C548        H552   1.083       .  S
C553       C1166   1.407       .  A
C553        C558   1.400       .  A
C553        H559   1.083       .  S
C554       C1165   1.407       .  A
C554        C555   1.404       .  A
C555        C556   1.399       .  A
C555        H560   1.083       .  S
C556        C557   1.408       .  A
C556        H561   1.083       .  S
C557       C1170   1.405       .  A
C558       C1169   1.405       .  A
C558        H562   1.083       .  S
C563        C564   1.404       .  A
C563        C568   1.392       .  A
C563        H569   1.083       .  S
C564       C1098   1.477       .  S
C564       C1177   1.405   1_455  A
C565       C1176   1.405       .  A
C565        C566   1.406       .  A
C565        H570   1.083       .  S
C566       C1179   1.408       .  A
C566        H571   1.083       .  S
C567       C1178   1.408   1_455  A
C567        C568   1.402       .  A
C568        H572   1.083       .  S
C573        C574   1.406       .  A
C573        C578   1.396       .  A
C573        H579   1.083       .  S
C574        C575   1.406   1_545  A
C575        C576   1.401       .  A
C575        H580   1.083       .  S
C576        C577   1.406   1_565  A
C576        H581   1.083       .  S
C577        C578   1.404       .  A
C578        H582   1.083       .  S
C583        C584   1.406       .  A
C583        C588   1.396       .  A
C584        C585   1.404       .  A
C585        C586   1.399       .  A
C585        H590   1.083   1_565  S
C586        C587   1.407       .  A
C586        H591   1.083   1_565  S
C587        C588   1.403       .  A
C588        H592   1.083       .  S
C593        C598   1.396       .  A
C593        H599   1.083       .  S
C594        C595   1.404       .  A
C595        C596   1.399       .  A
C595        H600   1.083   1_565  S
C596        H601   1.083   1_565  S
C597        C598   1.403       .  A
C598        H602   1.083       .  S
C603        C604   1.406       .  A
C603        C608   1.402       .  A
C603        H609   1.083       .  S
C604        C605   1.406       .  A
C605        C606   1.395       .  A
C605        H610   1.083       .  S
C606        C607   1.404       .  A
C607        C608   1.407       .  A
C608        H612   1.083       .  S
O613       Co633   1.982       .  S
O613        C927   1.259   1_545  A
O614       Co787   1.974       .  S
O614        C622   1.270       .  A
O615       Co635   2.123       .  S
O616       Co789   2.031       .  S
O616        C624   1.275       .  A
O617       Co787   1.879       .  S
O617        C623   1.262       .  A
O618       Co633   1.966       .  S
O619       Co789   2.024       .  S
O619        C928   1.279       .  A
O620       Co635   1.994       .  S
O620        C621   1.260       .  A
C621        O919   1.259       .  A
C621        C737   1.476       .  S
C622        O925   1.279       .  A
C622        C727   1.480       .  S
O625       Co786   2.030   1_554  S
O625        C638   1.275       .  A
O626       Co634   2.120   1_554  S
O626        C639   1.298   1_655  A
O627       Co788   1.975       .  S
O627        C946   1.270       .  A
O628       Co636   1.983       .  S
O628        C947   1.259   1_545  A
O629       Co634   1.994   1_554  S
O629        C641   1.260       .  A
O630       Co786   2.025   1_554  S
O630        C640   1.279       .  A
O631       Co636   1.964       .  S
O632       Co788   1.880       .  S
Co633       O778   2.030       .  S
Co633       O783   2.025       .  S
Co633       O637   2.029       .  S
Co634       O767   1.974       .  S
Co634       O770   1.879       .  S
Co635       O780   1.975       .  S
Co635       O785   1.880       .  S
Co635       O943   2.002       .  S
Co636       O769   2.031   1_554  S
Co636       O772   2.024   1_554  S
O637       Co941   2.002   1_545  S
C638        C707   1.483       .  S
C640        O933   1.270   1_545  A
C640        C757   1.481       .  S
C641        O934   1.259       .  A
C641        C747   1.476       .  S
C642        C720   1.478       .  S
C642        N643   1.359       .  A
C642        N647   1.357       .  A
N643        C644   1.363       .  A
C644        C677   1.488       .  S
C644        N645   1.363       .  A
N645        C646   1.360       .  A
C646        C710   1.486       .  S
C646        N647   1.356       .  A
C648        C697   1.478       .  S
C648        N649   1.357       .  A
C648        N653   1.359       .  A
N649        C650   1.357       .  A
C650        C690   1.487       .  S
C650        N651   1.360       .  A
N651        C652   1.363       .  A
C652        C680   1.488       .  S
C652        N653   1.363       .  A
C654        C760   1.481   1_565  S
C654        N655   1.359       .  A
C654        N659   1.360       .  A
N655        C656   1.360       .  A
C656        C973   1.478       .  S
C656        N657   1.357       .  A
N657        C658   1.355       .  A
C658        C750   1.477       .  S
C658        N659   1.359       .  A
C660        C740   1.478       .  S
C660        N661   1.355       .  A
C660        N665   1.359       .  A
N661        C662   1.357       .  A
C662        C670   1.479       .  S
C662        N663   1.360       .  A
N663        C664   1.359       .  A
C664        C730   1.480       .  S
C664        N665   1.360       .  A
C666        C667   1.407       .  A
C666        C671   1.395       .  A
C666        H672   1.083       .  S
C667        C962   1.478       .  S
C667        C974   1.404       .  A
C668        C973   1.404       .  A
C668        C669   1.395       .  A
C668        H673   1.083       .  S
C669        C976   1.407       .  A
C669        H674   1.083       .  S
C670        C975   1.407       .  A
C670        C671   1.404       .  A
C671        H675   1.083       .  S
C676        C681   1.400   1_455  A
C676        H682   1.083       .  S
C677        C678   1.407       .  A
C678        C679   1.400       .  A
C678        H683   1.083       .  S
C679        C680   1.407       .  A
C679        H684   1.083       .  S
C681        H685   1.083       .  S
C686        C687   1.407       .  A
C686        C691   1.401       .  A
C686        H692   1.083       .  S
C688        C689   1.399       .  A
C688        H693   1.083       .  S
C689        H694   1.083       .  S
C690        C691   1.406       .  A
C691        H695   1.083       .  S
C696        C701   1.392       .  A
C696        H702   1.083       .  S
C697        C698   1.408       .  A
C698        C699   1.406       .  A
C698        H703   1.083       .  S
C699        C700   1.406       .  A
C699        H704   1.083       .  S
C701        H705   1.083       .  S
C706        C711   1.400       .  A
C706        H712   1.083       .  S
C707        C708   1.404       .  A
C708        C709   1.399       .  A
C708        H713   1.083       .  S
C709        C710   1.408       .  A
C709        H714   1.083       .  S
C711        H715   1.083       .  S
C716        C717   1.404       .  A
C716        C721   1.392       .  A
C716        H722   1.083       .  S
C718        C719   1.406       .  A
C718        H723   1.083       .  S
C719        H724   1.083       .  S
C720        C721   1.402       .  A
C721        H725   1.083       .  S
C726        C727   1.406       .  A
C726        C731   1.396       .  A
C726        H732   1.083       .  S
C727        C728   1.406       .  A
C728        C729   1.401       .  A
C728        H733   1.083       .  S
C729        C730   1.406       .  A
C729        H734   1.083       .  S
C730        C731   1.404       .  A
C731        H735   1.083       .  S
C736        C737   1.406       .  A
C736        C741   1.396       .  A
C736       H1048   1.083       .  S
C737        C738   1.404       .  A
C738        C739   1.399       .  A
C738        H743   1.083       .  S
C739        C740   1.407       .  A
C739        H744   1.083       .  S
C740        C741   1.403       .  A
C741        H745   1.083       .  S
H742       C1042   1.083       .  S
C746       C1053   1.406       .  A
C746        C751   1.396       .  A
C746        H752   1.083       .  S
C747       C1052   1.406       .  A
C747        C748   1.404       .  A
C748        C749   1.399       .  A
C748        H753   1.083       .  S
C749       C1056   1.407       .  A
C749        H754   1.083       .  S
C750       C1055   1.407       .  A
C750        C751   1.403       .  A
C751        H755   1.083       .  S
C756        C757   1.406   1_565  A
C756        C761   1.402       .  A
C756        H762   1.083       .  S
C757        C758   1.406       .  A
C758        C759   1.395       .  A
C758        H763   1.083       .  S
C759        C760   1.404       .  A
C759       H1070   1.083       .  S
C760        C761   1.407   1_545  A
C761        H765   1.083       .  S
H764       C1065   1.083       .  S
O766       Co786   1.982       .  S
O766       C1080   1.259   1_545  A
O767        C775   1.270       .  A
O768       Co788   2.123   1_556  S
O769        C777   1.275       .  A
O770        C776   1.262       .  A
O771       Co786   1.966       .  S
O772       C1081   1.279       .  A
O773       Co788   1.994   1_556  S
O773        C774   1.260       .  A
C774       O1072   1.259       .  A
C774        C890   1.476       .  S
C775       O1078   1.279       .  A
C775        C880   1.480       .  S
O778        C791   1.275       .  A
O779       Co787   2.120       .  S
O779        C792   1.298   1_655  A
O780       C1099   1.270       .  A
O781       Co789   1.983       .  S
O781       C1100   1.259   1_545  A
O782       Co787   1.994       .  S
O782        C794   1.260       .  A
O783        C793   1.279       .  A
O784       Co789   1.964       .  S
Co786       O790   2.029   1_556  S
Co788      O1096   2.002       .  S
O790      Co1094   2.002   1_545  S
C791        C860   1.483       .  S
C793       O1086   1.270   1_545  A
C793        C910   1.481       .  S
C794       O1087   1.259       .  A
C794        C900   1.476       .  S
C795        C873   1.478       .  S
C795        N796   1.359       .  A
C795        N800   1.357       .  A
N796        C797   1.363       .  A
C797        C830   1.488       .  S
C797        N798   1.363       .  A
N798        C799   1.360       .  A
C799        C863   1.486       .  S
C799        N800   1.356       .  A
C801        C850   1.478       .  S
C801        N802   1.357       .  A
C801        N806   1.359       .  A
N802        C803   1.357       .  A
C803        C843   1.487       .  S
C803        N804   1.360       .  A
N804        C805   1.363       .  A
C805        C833   1.488       .  S
C805        N806   1.363       .  A
C807        C913   1.481   1_565  S
C807        N808   1.359       .  A
C807        N812   1.360       .  A
N808        C809   1.360       .  A
C809       C1126   1.478       .  S
C809        N810   1.357       .  A
N810        C811   1.355       .  A
C811        C903   1.477       .  S
C811        N812   1.359       .  A
C813        C893   1.478       .  S
C813        N814   1.355       .  A
C813        N818   1.359       .  A
N814        C815   1.357       .  A
C815        C823   1.479       .  S
C815        N816   1.360       .  A
N816        C817   1.359       .  A
C817        C883   1.480       .  S
C817        N818   1.360       .  A
C819        C820   1.407       .  A
C819        C824   1.395       .  A
C819        H825   1.083       .  S
C820       C1115   1.478       .  S
C820       C1127   1.404       .  A
C821       C1126   1.404       .  A
C821        C822   1.395       .  A
C821        H826   1.083       .  S
C822       C1129   1.407       .  A
C822        H827   1.083       .  S
C823       C1128   1.407       .  A
C823        C824   1.404       .  A
C824        H828   1.083       .  S
C829        C834   1.400   1_455  A
C829        H835   1.083       .  S
C830        C831   1.407       .  A
C831        C832   1.400       .  A
C831        H836   1.083       .  S
C832        C833   1.407       .  A
C832        H837   1.083       .  S
C834        H838   1.083       .  S
C839        C840   1.407       .  A
C839        C844   1.401       .  A
C839        H845   1.083       .  S
C841        C842   1.399       .  A
C841        H846   1.083       .  S
C842        H847   1.083       .  S
C843        C844   1.406       .  A
C844        H848   1.083       .  S
C849        C854   1.392       .  A
C849        H855   1.083       .  S
C850        C851   1.408       .  A
C851        C852   1.406       .  A
C851        H856   1.083       .  S
C852        C853   1.406       .  A
C852        H857   1.083       .  S
C854        H858   1.083       .  S
C859        C864   1.400       .  A
C859        H865   1.083       .  S
C860        C861   1.404       .  A
C861        C862   1.399       .  A
C861        H866   1.083       .  S
C862        C863   1.408       .  A
C862        H867   1.083       .  S
C864        H868   1.083       .  S
C869        C870   1.404       .  A
C869        C874   1.392       .  A
C869        H875   1.083       .  S
C871        C872   1.406       .  A
C871        H876   1.083       .  S
C872        H877   1.083       .  S
C873        C874   1.402       .  A
C874        H878   1.083       .  S
C879        C880   1.406       .  A
C879        C884   1.396       .  A
C879        H885   1.083       .  S
C880        C881   1.406       .  A
C881        C882   1.401       .  A
C881        H886   1.083       .  S
C882        C883   1.406       .  A
C882        H887   1.083       .  S
C883        C884   1.404       .  A
C884        H888   1.083       .  S
C889        C890   1.406       .  A
C889        C894   1.396       .  A
C889       H1201   1.083       .  S
C890        C891   1.404       .  A
C891        C892   1.399       .  A
C891        H896   1.083       .  S
C892        C893   1.407       .  A
C892        H897   1.083       .  S
C893        C894   1.403       .  A
C894        H898   1.083       .  S
H895       C1195   1.083       .  S
C899       C1206   1.406       .  A
C899        C904   1.396       .  A
C899        H905   1.083       .  S
C900       C1205   1.406       .  A
C900        C901   1.404       .  A
C901        C902   1.399       .  A
C901        H906   1.083       .  S
C902       C1209   1.407       .  A
C902        H907   1.083       .  S
C903       C1208   1.407       .  A
C903        C904   1.403       .  A
C904        H908   1.083       .  S
C909        C910   1.406   1_565  A
C909        C914   1.402       .  A
C909        H915   1.083       .  S
C910        C911   1.406       .  A
C911        C912   1.395       .  A
C911        H916   1.083       .  S
C912        C913   1.404       .  A
C912       H1223   1.083       .  S
C913        C914   1.407   1_545  A
C914        H918   1.083       .  S
H917       C1218   1.083       .  S
O919       Co939   1.982       .  S
O920      Co1093   1.974       .  S
O920        C928   1.270   1_565  A
O921       Co941   2.123       .  S
O922      Co1095   2.031       .  S
O922        C930   1.275       .  A
O923      Co1093   1.879       .  S
O923        C929   1.262       .  A
O924       Co939   1.966       .  S
O925      Co1095   2.024       .  S
O926       Co941   1.994       .  S
O926        C927   1.260       .  A
C927       C1043   1.476       .  S
C928       C1033   1.480       .  S
O931      Co1092   2.030   1_554  S
O931        C944   1.275       .  A
O932       Co940   2.120   1_554  S
O932        C945   1.298   1_655  A
O933      Co1094   1.975       .  S
O934       Co942   1.983       .  S
O935       Co940   1.994   1_554  S
O935        C947   1.260       .  A
O936      Co1092   2.025   1_554  S
O936        C946   1.279       .  A
O937       Co942   1.964       .  S
O938      Co1094   1.880       .  S
Co939      O1084   2.030       .  S
Co939      O1089   2.025       .  S
Co939       O943   2.029       .  S
Co940      O1073   1.974       .  S
Co940      O1076   1.879       .  S
Co941      O1086   1.975       .  S
Co941      O1091   1.880       .  S
Co942      O1075   2.031   1_554  S
Co942      O1078   2.024   1_554  S
C944       C1013   1.483       .  S
C946       C1063   1.481       .  S
C947       C1053   1.476       .  S
C948       C1026   1.478       .  S
C948        N949   1.359       .  A
C948        N953   1.357       .  A
N949        C950   1.363       .  A
C950        C983   1.488       .  S
C950        N951   1.363       .  A
N951        C952   1.360       .  A
C952       C1016   1.486       .  S
C952        N953   1.356       .  A
C954       C1003   1.478       .  S
C954        N955   1.357       .  A
C954        N959   1.359       .  A
N955        C956   1.357       .  A
C956        C996   1.487       .  S
C956        N957   1.360       .  A
N957        C958   1.363       .  A
C958        C986   1.488       .  S
C958        N959   1.363       .  A
C960       C1066   1.481       .  S
C960        N961   1.359       .  A
C960        N965   1.360       .  A
N961        C962   1.360       .  A
C962        N963   1.357       .  A
N963        C964   1.355       .  A
C964       C1056   1.477       .  S
C964        N965   1.359       .  A
C966       C1046   1.478       .  S
C966        N967   1.355       .  A
C966        N971   1.359       .  A
N967        C968   1.357       .  A
C968        C976   1.479       .  S
C968        N969   1.360       .  A
N969        C970   1.359       .  A
C970       C1036   1.480   1_565  S
C970        N971   1.360       .  A
C972        C973   1.407       .  A
C972        C977   1.395       .  A
C972        H978   1.083       .  S
C974        C975   1.395       .  A
C974        H979   1.083       .  S
C975        H980   1.083       .  S
C976        C977   1.404       .  A
C977        H981   1.083       .  S
C982        C987   1.400   1_455  A
C982        H988   1.083       .  S
C983        C984   1.407       .  A
C984        C985   1.400       .  A
C984        H989   1.083       .  S
C985        C986   1.407       .  A
C985        H990   1.083       .  S
C987        H991   1.083       .  S
C992        C993   1.407       .  A
C992        C997   1.401       .  A
C992        H998   1.083       .  S
C994        C995   1.399       .  A
C994        H999   1.083       .  S
C995       H1000   1.083       .  S
C996        C997   1.406       .  A
C997       H1001   1.083       .  S
C1002      C1007   1.392       .  A
C1002      H1008   1.083       .  S
C1003      C1004   1.408       .  A
C1004      C1005   1.406       .  A
C1004      H1009   1.083       .  S
C1005      C1006   1.406       .  A
C1005      H1010   1.083       .  S
C1007      H1011   1.083       .  S
C1012      C1017   1.400       .  A
C1012      H1018   1.083       .  S
C1013      C1014   1.404       .  A
C1014      C1015   1.399       .  A
C1014      H1019   1.083       .  S
C1015      C1016   1.408       .  A
C1015      H1020   1.083       .  S
C1017      H1021   1.083       .  S
C1022      C1023   1.404       .  A
C1022      C1027   1.392       .  A
C1022      H1028   1.083       .  S
C1024      C1025   1.406       .  A
C1024      H1029   1.083       .  S
C1025      H1030   1.083       .  S
C1026      C1027   1.402       .  A
C1027      H1031   1.083       .  S
C1032      C1033   1.406       .  A
C1032      C1037   1.396       .  A
C1032      H1038   1.083       .  S
C1033      C1034   1.406   1_545  A
C1034      C1035   1.401       .  A
C1034      H1039   1.083       .  S
C1035      C1036   1.406   1_565  A
C1035      H1040   1.083       .  S
C1036      C1037   1.404       .  A
C1037      H1041   1.083       .  S
C1042      C1043   1.406       .  A
C1042      C1047   1.396       .  A
C1043      C1044   1.404       .  A
C1044      C1045   1.399       .  A
C1044      H1049   1.083   1_565  S
C1045      C1046   1.407       .  A
C1045      H1050   1.083   1_565  S
C1046      C1047   1.403       .  A
C1047      H1051   1.083       .  S
C1052      C1057   1.396       .  A
C1052      H1058   1.083       .  S
C1053      C1054   1.404       .  A
C1054      C1055   1.399       .  A
C1054      H1059   1.083   1_565  S
C1055      H1060   1.083   1_565  S
C1056      C1057   1.403       .  A
C1057      H1061   1.083       .  S
C1062      C1063   1.406       .  A
C1062      C1067   1.402       .  A
C1062      H1068   1.083       .  S
C1063      C1064   1.406       .  A
C1064      C1065   1.395       .  A
C1064      H1069   1.083       .  S
C1065      C1066   1.404       .  A
C1066      C1067   1.407       .  A
C1067      H1071   1.083       .  S
O1072     Co1092   1.982       .  S
O1073      C1081   1.270   1_565  A
O1074     Co1094   2.123   1_556  S
O1075      C1083   1.275       .  A
O1076      C1082   1.262       .  A
O1077     Co1092   1.966       .  S
O1079     Co1094   1.994   1_556  S
O1079      C1080   1.260       .  A
C1080      C1196   1.476       .  S
C1081      C1186   1.480       .  S
O1084      C1097   1.275       .  A
O1085     Co1093   2.120       .  S
O1085      C1098   1.298   1_655  A
O1087     Co1095   1.983       .  S
O1088     Co1093   1.994       .  S
O1088      C1100   1.260       .  A
O1089      C1099   1.279       .  A
O1090     Co1095   1.964       .  S
Co1092     O1096   2.029   1_556  S
C1097      C1166   1.483       .  S
C1099      C1216   1.481       .  S
C1100      C1206   1.476       .  S
C1101      C1179   1.478       .  S
C1101      N1102   1.359       .  A
C1101      N1106   1.357       .  A
N1102      C1103   1.363       .  A
C1103      C1136   1.488       .  S
C1103      N1104   1.363       .  A
N1104      C1105   1.360       .  A
C1105      C1169   1.486       .  S
C1105      N1106   1.356       .  A
C1107      C1156   1.478       .  S
C1107      N1108   1.357       .  A
C1107      N1112   1.359       .  A
N1108      C1109   1.357       .  A
C1109      C1149   1.487       .  S
C1109      N1110   1.360       .  A
N1110      C1111   1.363       .  A
C1111      C1139   1.488       .  S
C1111      N1112   1.363       .  A
C1113      C1219   1.481       .  S
C1113      N1114   1.359       .  A
C1113      N1118   1.360       .  A
N1114      C1115   1.360       .  A
C1115      N1116   1.357       .  A
N1116      C1117   1.355       .  A
C1117      C1209   1.477       .  S
C1117      N1118   1.359       .  A
C1119      C1199   1.478       .  S
C1119      N1120   1.355       .  A
C1119      N1124   1.359       .  A
N1120      C1121   1.357       .  A
C1121      C1129   1.479       .  S
C1121      N1122   1.360       .  A
N1122      C1123   1.359       .  A
C1123      C1189   1.480   1_565  S
C1123      N1124   1.360       .  A
C1125      C1126   1.407       .  A
C1125      C1130   1.395       .  A
C1125      H1131   1.083       .  S
C1127      C1128   1.395       .  A
C1127      H1132   1.083       .  S
C1128      H1133   1.083       .  S
C1129      C1130   1.404       .  A
C1130      H1134   1.083       .  S
C1135      C1140   1.400   1_455  A
C1135      H1141   1.083       .  S
C1136      C1137   1.407       .  A
C1137      C1138   1.400       .  A
C1137      H1142   1.083       .  S
C1138      C1139   1.407       .  A
C1138      H1143   1.083       .  S
C1140      H1144   1.083       .  S
C1145      C1146   1.407       .  A
C1145      C1150   1.401       .  A
C1145      H1151   1.083       .  S
C1147      C1148   1.399       .  A
C1147      H1152   1.083       .  S
C1148      H1153   1.083       .  S
C1149      C1150   1.406       .  A
C1150      H1154   1.083       .  S
C1155      C1160   1.392       .  A
C1155      H1161   1.083       .  S
C1156      C1157   1.408       .  A
C1157      C1158   1.406       .  A
C1157      H1162   1.083       .  S
C1158      C1159   1.406       .  A
C1158      H1163   1.083       .  S
C1160      H1164   1.083       .  S
C1165      C1170   1.400       .  A
C1165      H1171   1.083       .  S
C1166      C1167   1.404       .  A
C1167      C1168   1.399       .  A
C1167      H1172   1.083       .  S
C1168      C1169   1.408       .  A
C1168      H1173   1.083       .  S
C1170      H1174   1.083       .  S
C1175      C1176   1.404       .  A
C1175      C1180   1.392       .  A
C1175      H1181   1.083       .  S
C1177      C1178   1.406       .  A
C1177      H1182   1.083       .  S
C1178      H1183   1.083       .  S
C1179      C1180   1.402       .  A
C1180      H1184   1.083       .  S
C1185      C1186   1.406       .  A
C1185      C1190   1.396       .  A
C1185      H1191   1.083       .  S
C1186      C1187   1.406   1_545  A
C1187      C1188   1.401       .  A
C1187      H1192   1.083       .  S
C1188      C1189   1.406   1_565  A
C1188      H1193   1.083       .  S
C1189      C1190   1.404       .  A
C1190      H1194   1.083       .  S
C1195      C1196   1.406       .  A
C1195      C1200   1.396       .  A
C1196      C1197   1.404       .  A
C1197      C1198   1.399       .  A
C1197      H1202   1.083   1_565  S
C1198      C1199   1.407       .  A
C1198      H1203   1.083   1_565  S
C1199      C1200   1.403       .  A
C1200      H1204   1.083       .  S
C1205      C1210   1.396       .  A
C1205      H1211   1.083       .  S
C1206      C1207   1.404       .  A
C1207      C1208   1.399       .  A
C1207      H1212   1.083   1_565  S
C1208      H1213   1.083   1_565  S
C1209      C1210   1.403       .  A
C1210      H1214   1.083       .  S
C1215      C1216   1.406       .  A
C1215      C1220   1.402       .  A
C1215      H1221   1.083       .  S
C1216      C1217   1.406       .  A
C1217      C1218   1.395       .  A
C1217      H1222   1.083       .  S
C1218      C1219   1.404       .  A
C1219      C1220   1.407       .  A
C1220      H1224   1.083       .  S
