geometry optimzed in LAMMPS
_audit_creation_date              2020-12-01 
_audit_creation_method            'lammps2cif' 
_symmetry_space_group_name_H-M    'P1' 
_symmetry_Int_Tables_number       1 
_symmetry_cell_setting            triclinic 
loop_ 
_symmetry_equiv_pos_as_xyz 
  x,y,z 
_cell_length_a                    25.3754288 
_cell_length_b                    25.34177820629889 
_cell_length_c                    77.66161140492532 
_cell_angle_alpha                 90.13492405765517 
_cell_angle_beta                  89.97413332107892 
_cell_angle_gamma                 90.04308901401178 
loop_ 
_atom_site_label 
_atom_site_type_symbol 
_atom_site_fract_x 
_atom_site_fract_y 
_atom_site_fract_z 
_atom_site_charge 
C1          C  0.50497542  0.99703055  0.25099750    -0.02600
C2          C  0.94690040  0.49246262  0.99194101     0.02100
C3          C  0.94829006  0.49395608  0.01011566     0.02100
C4          C  0.99716190  0.49161696  0.01858426    -0.18400
C5          C  0.04473957  0.48860411  0.00937157     0.02100
C6          C  0.04324429  0.48851630  0.99118585     0.02100
C7          C  0.99444471  0.49032127  0.98276702    -0.18400
H8          H  0.99347679  0.49016451  0.96880043     0.04200
H9          H  0.99817792  0.49224076  0.03254579     0.04200
C10         C  0.49585488  0.98937624  0.74988833    -0.02600
C11         C  0.99693231  0.50347919  0.75124506    -0.02600
C12         C  0.49654858  0.94859311  0.00957791     0.02100
C13         C  0.49392549  0.94939834  0.99140490     0.02100
C14         C  0.49365824  0.99804416  0.98289637    -0.18400
C15         C  0.49587188  0.04576579  0.99201872     0.02100
C16         C  0.49594685  0.04506528  0.01016596     0.02100
C17         C  0.49574217  0.99647869  0.01868390    -0.18400
H18         H  0.49619712  0.99595573  0.03265099     0.04200
H19         H  0.49279297  0.99878687  0.96892968     0.04200
N20         N  0.46863835  0.60507424  0.88409221    -0.06300
N21         N  0.45033141  0.63495492  0.89670700    -0.58400
N22         N  0.51935385  0.60798913  0.84425313    -0.05900
N23         N  0.53631599  0.64345315  0.83313242    -0.60500
N24         N  0.46749508  0.60735948  0.84466216    -0.05500
N25         N  0.44823141  0.64264366  0.83388904    -0.58400
N26         N  0.52038609  0.60728711  0.88362612    -0.05200
N27         N  0.53836386  0.63875982  0.89584339    -0.60900
C28         C  0.49431674  0.65551314  0.90398917     0.95900
C29         C  0.49157593  0.66442696  0.82663441     0.95700
N30         N  0.61253901  0.47014085  0.84416465    -0.06400
N31         N  0.64693629  0.45309410  0.83267320    -0.59000
N32         N  0.60978964  0.52262875  0.88350933    -0.04600
N33         N  0.63809287  0.54235680  0.89624774    -0.60200
N34         N  0.61077093  0.47077215  0.88382041    -0.06500
N35         N  0.63965747  0.45412899  0.89687056    -0.59200
N36         N  0.61039624  0.52201174  0.84402235    -0.04200
N37         N  0.64327913  0.54119545  0.83244680    -0.60300
Mn38       Mn  0.56593735  0.56585016  0.86371824     1.18400
C39         C  0.66558345  0.49781550  0.82534478     0.98000
C40         C  0.65629936  0.49923536  0.90455018     0.98700
N41         N  0.38190495  0.51606406  0.84423399    -0.06500
N42         N  0.34698655  0.53401897  0.83309583    -0.62800
N43         N  0.38437486  0.46183765  0.88314785    -0.05300
N44         N  0.35531364  0.44175417  0.89562382    -0.63500
N45         N  0.38364285  0.51369689  0.88382360    -0.06000
N46         N  0.35418777  0.52992936  0.89682246    -0.63100
N47         N  0.38365351  0.46416058  0.84368128    -0.04900
N48         N  0.34969296  0.44595429  0.83222901    -0.63800
Mn49       Mn  0.42429432  0.56146483  0.86420657     1.10700
C50         C  0.32731567  0.48993999  0.82559096     0.99200
C51         C  0.33679337  0.48461270  0.90409177     0.99300
N52         N  0.52567400  0.37999466  0.88339165    -0.06000
N53         N  0.54386077  0.35171744  0.89634603    -0.61400
N54         N  0.47569696  0.37706897  0.84328790    -0.05300
N55         N  0.45971764  0.34163157  0.83187726    -0.58100
N56         N  0.52756404  0.37832907  0.84386927    -0.06600
N57         N  0.54767244  0.34382347  0.83292453    -0.60900
N58         N  0.47395183  0.37743130  0.88280719    -0.05600
N59         N  0.45582471  0.34720852  0.89527979    -0.58100
Mn60       Mn  0.57026776  0.42381029  0.86380273     1.20200
Mn61       Mn  0.42839761  0.41909094  0.86304197     1.10100
Cl62       Cl  0.49719025  0.49253432  0.86356445    -0.86100
C63         C  0.49979221  0.33167161  0.90366809     0.96200
C64         C  0.50507341  0.32136002  0.82541045     0.96000
N65         N  0.46685883  0.61335178  0.15608231    -0.06300
N66         N  0.44690556  0.64829401  0.16689099    -0.58400
N67         N  0.52219997  0.61043250  0.11720784    -0.05900
N68         N  0.54077431  0.64009396  0.10464390    -0.60500
N69         N  0.47045871  0.60938363  0.11678708    -0.05500
N70         N  0.45268370  0.63840865  0.10398334    -0.58400
N71         N  0.51869390  0.61425005  0.15668160    -0.05200
N72         N  0.53493302  0.64966606  0.16800575    -0.60900
C73         C  0.48972899  0.67046556  0.17434218     0.95900
C74         C  0.49692746  0.65725490  0.09647921     0.95700
N75         N  0.61179104  0.47260824  0.11896052    -0.06400
N76         N  0.64170684  0.45386962  0.10647338    -0.59000
N77         N  0.60921639  0.52754145  0.15793486    -0.04600
N78         N  0.64320765  0.54732157  0.16907179    -0.60200
N79         N  0.60989234  0.47563998  0.15848787    -0.06500
N80         N  0.64418194  0.45919850  0.17008719    -0.59200
N81         N  0.61050753  0.52443813  0.11841259    -0.04200
N82         N  0.63931193  0.54204850  0.10547372    -0.60300
Mn83       Mn  0.56621525  0.57020136  0.13764838     1.18400
C84         C  0.65858804  0.49756142  0.09814367     0.98000
C85         C  0.66449119  0.50433819  0.17666954     0.98700
N86         N  0.38466518  0.52033596  0.11645447    -0.06500
N87         N  0.35545808  0.53760737  0.10360631    -0.62800
N88         N  0.38016596  0.47135517  0.15607178    -0.05300
N89         N  0.34282921  0.45377067  0.16642067    -0.63500
N90         N  0.37993727  0.52330684  0.15580445    -0.06000
N91         N  0.34279098  0.54196098  0.16604065    -0.63100
N92         N  0.38562220  0.46845593  0.11659226    -0.04900
N93         N  0.35723764  0.44937574  0.10371828    -0.63800
Mn94       Mn  0.42460034  0.56744078  0.13635592     1.10700
C95         C  0.33865798  0.49305087  0.09571685     0.99200
C96         C  0.32010513  0.49820622  0.17265581     0.99300
N97         N  0.52306309  0.38529329  0.15839695    -0.06000
N98         N  0.54110743  0.35199846  0.17004461    -0.61400
N99         N  0.47474815  0.38270023  0.11830132    -0.05300
N100        N  0.45821179  0.35341160  0.10532443    -0.58100
N101        N  0.52651379  0.38309601  0.11891948    -0.06600
N102        N  0.54631928  0.35372830  0.10642753    -0.60900
N103        N  0.47120603  0.38381424  0.15786404    -0.05600
N104        N  0.45317459  0.34921458  0.16913943    -0.58100
Mn105      Mn  0.56886395  0.42816146  0.13881352     1.20200
Mn106      Mn  0.42692660  0.42543222  0.13730864     1.10100
Cl107      Cl  0.49661364  0.49778578  0.13768113    -0.86100
C108        C  0.49715260  0.32984408  0.17675950     0.96200
C109        C  0.50322112  0.33573863  0.09798911     0.96000
N110        N  0.11257043  0.02404650  0.65665285    -0.06300
N111        N  0.14756465  0.04163512  0.66780294    -0.58400
N112        N  0.10928837  0.97422237  0.61709082    -0.05900
N113        N  0.13881728  0.95623822  0.60434632    -0.60500
N114        N  0.10904261  0.02613736  0.61714360    -0.05500
N115        N  0.13828919  0.04445756  0.60440466    -0.58400
N116        N  0.11157817  0.97210628  0.65665722    -0.05200
N117        N  0.14591833  0.95339590  0.66788091    -0.60900
C118        C  0.16771385  0.99731351  0.67484103     0.95900
C119        C  0.15658960  0.00044979  0.59648129     0.95700
N120        N  0.96878000  0.88975792  0.61684144    -0.06400
N121        N  0.94998356  0.86196912  0.60379911    -0.59000
N122        N  0.02143184  0.88452844  0.65656890    -0.04600
N123        N  0.03889338  0.85174675  0.66848807    -0.60200
N124        N  0.96958911  0.88536226  0.65658084    -0.06500
N125        N  0.95085399  0.85346270  0.66854081    -0.59200
N126        N  0.02054804  0.88829040  0.61689532    -0.04200
N127        N  0.03806297  0.85949928  0.60392749    -0.60300
Mn128      Mn  0.06679061  0.92858248  0.63691120     1.18400
C129        C  0.99368592  0.84349534  0.59578724     0.98000
C130        C  0.99443711  0.83281677  0.67597219     0.98700
N131        N  0.02229796  0.11582244  0.61870389    -0.06500
N132        N  0.03907181  0.14524216  0.60577461    -0.62800
N133        N  0.97479518  0.11436802  0.65929591    -0.05300
N134        N  0.95887090  0.14868184  0.67104215    -0.63500
N135        N  0.02660230  0.11414440  0.65835188    -0.06000
N136        N  0.04673505  0.14816958  0.66946508    -0.63100
N137        N  0.97063209  0.11789698  0.61983764    -0.04900
N138        N  0.95116421  0.14905782  0.60782440    -0.63800
Mn139      Mn  0.06866738  0.07096993  0.63768812     1.10700
C140        C  0.99419495  0.16559536  0.59909089     0.99200
C141        C  0.00416901  0.16932287  0.67741356     0.99300
N142        N  0.88308546  0.97412943  0.65780357    -0.06000
N143        N  0.84784160  0.95444551  0.66851862    -0.61400
N144        N  0.88301019  0.03154177  0.61947072    -0.05300
N145        N  0.85387215  0.05243534  0.60720975    -0.58100
N146        N  0.88317063  0.97975708  0.61824515    -0.06600
N147        N  0.85435985  0.96432579  0.60498922    -0.60900
N148        N  0.88370906  0.02602570  0.65876925    -0.05600
N149        N  0.84830135  0.04255461  0.67003719    -0.58100
Mn150      Mn  0.92510019  0.93115248  0.63733882     1.20200
Mn151      Mn  0.92707327  0.07340093  0.63957349     1.10100
Cl152      Cl  0.99693085  0.00103533  0.63798789    -0.86100
C153        C  0.82716182  0.99742884  0.67626619     0.96200
C154        C  0.83653807  0.01016604  0.59822826     0.96000
N155        N  0.11988857  0.97351136  0.34490703    -0.06300
N156        N  0.15482592  0.95390085  0.33402837    -0.58400
N157        N  0.11516380  0.03096093  0.38344159    -0.05900
N158        N  0.14345447  0.05139164  0.39605370    -0.60500
N159        N  0.11490951  0.97919949  0.38442489    -0.05500
N160        N  0.14293917  0.96330764  0.39775671    -0.58400
N161        N  0.11926854  0.02535252  0.34395620    -0.05200
N162        N  0.15372168  0.04192580  0.33241154    -0.60900
C163        C  0.17541197  0.99694205  0.32619062     0.95900
C164        C  0.16047316  0.00880101  0.40492203     0.95700
N165        N  0.97533120  0.11680738  0.38116562    -0.06400
N166        N  0.95609080  0.14647465  0.39365622    -0.59000
N167        N  0.03010160  0.11355988  0.34208050    -0.04600
N168        N  0.04798704  0.14869918  0.33094694    -0.60200
N169        N  0.97825243  0.11263144  0.34185906    -0.06500
N170        N  0.95998661  0.14685157  0.33062555    -0.59200
N171        N  0.02712773  0.11687226  0.38159766    -0.04200
N172        N  0.04425505  0.14616985  0.39449200    -0.60300
Mn173      Mn  0.07401865  0.07276434  0.36263524     1.18400
C174        C  0.99955230  0.16426254  0.40191781     0.98000
C175        C  0.00369300  0.16894553  0.32382102     0.98700
N176        N  0.02754811  0.89103705  0.38487471    -0.06500
N177        N  0.04422409  0.86294144  0.39810891    -0.62800
N178        N  0.97975186  0.88486478  0.34471183    -0.05300
N179        N  0.96330175  0.84998115  0.33323809    -0.63500
N180        N  0.03158566  0.88522898  0.34536571    -0.06000
N181        N  0.05129497  0.85064737  0.33440844    -0.63100
N182        N  0.97576889  0.89065375  0.38421224    -0.04900
N183        N  0.95621493  0.86229808  0.39692051    -0.63800
Mn184      Mn  0.07457413  0.93111344  0.36489795     1.10700
C185        C  0.99923624  0.84530563  0.40554827     0.99200
C186        C  0.00838663  0.82903656  0.32684789     0.99300
N187        N  0.89088725  0.02427653  0.34207541    -0.06000
N188        N  0.85891323  0.04095521  0.32985141    -0.61400
N189        N  0.88765412  0.97769379  0.38245050    -0.05300
N190        N  0.85736477  0.96160484  0.39527618    -0.58100
N191        N  0.88755880  0.02948840  0.38159343    -0.06600
N192        N  0.85707610  0.04967587  0.39370694    -0.60900
N193        N  0.89067900  0.97243839  0.34278893    -0.05600
N194        N  0.85833623  0.95284796  0.33109826    -0.58100
Mn195      Mn  0.93205713  0.07171696  0.36159563     1.20200
Mn196      Mn  0.93235056  0.93022962  0.36347833     1.10100
Cl197      Cl  0.00330235  0.00137948  0.36301089    -0.86100
C198        C  0.83899549  0.99599669  0.32302775     0.96200
C199        C  0.83846313  0.00699502  0.40220403     0.96000
C200        C  0.99148529  0.54739695  0.50918514     0.02100
C201        C  0.99621059  0.54761831  0.49099495     0.02100
C202        C  0.99777897  0.49920691  0.48216515    -0.18400
C203        C  0.99579167  0.45076056  0.49088398     0.02100
C204        C  0.99029485  0.45063951  0.50896616     0.02100
C205        C  0.98827235  0.49878937  0.51783825    -0.18400
H206        H  0.98534676  0.49830079  0.53177228     0.04200
H207        H  0.00011193  0.49917592  0.46822057     0.04200
C208        C  0.54965833  0.01630812  0.49163825     0.02100
C209        C  0.54951510  0.01928629  0.50977777     0.02100
C210        C  0.50139045  0.01967327  0.51869911    -0.18400
C211        C  0.45287962  0.01708015  0.51000286     0.02100
C212        C  0.45300843  0.01490412  0.49176929     0.02100
C213        C  0.50133978  0.01458583  0.48290912    -0.18400
H214        H  0.50138566  0.01294794  0.46894992     0.04200
H215        H  0.50183696  0.02072914  0.53266254     0.04200
C216        C  0.99737733  0.50171690  0.25038049    -0.02600
C217        C  0.05469361  0.70484425  0.30391384    -0.27800
C218        C  0.00908290  0.68966033  0.29496903     0.01800
C219        C  0.96393341  0.72197211  0.29599168     0.29900
C220        C  0.96454135  0.76768961  0.30614824    -0.19500
C221        C  0.01009964  0.78270027  0.31518207    -0.28900
C222        C  0.05570570  0.75107615  0.31377921     0.44000
C223        C  0.00899500  0.64037901  0.28454281     0.05200
O224        O  0.91894026  0.70928820  0.28710999    -0.57500
H225        H  0.92915011  0.79145810  0.30695946     0.18100
O226        O  0.10133167  0.76426763  0.32222125    -0.64200
H227        H  0.08958008  0.68028409  0.30351665     0.16500
C228        C  0.04903763  0.62997068  0.27250075     0.28800
C229        C  0.04660670  0.58483052  0.26213774    -0.25100
C230        C  0.00326484  0.54969649  0.26287014    -0.24400
C231        C  0.96540574  0.55853156  0.27609476     0.40200
C232        C  0.96834625  0.60347376  0.28657369    -0.26800
O233        O  0.08950789  0.66516053  0.27010210    -0.58700
H234        H  0.07950139  0.57821073  0.25362362     0.15900
O235        O  0.92318664  0.52523993  0.27809154    -0.60100
H236        H  0.93809915  0.60986082  0.29620559     0.14300
H237        H  0.09977440  0.74504858  0.33332475     0.46200
H238        H  0.12118478  0.64786825  0.27499808     0.41600
H239        H  0.93078931  0.50473158  0.28866488     0.45000
H240        H  0.92487179  0.72244174  0.27523796     0.36500
C241        C  0.95922072  0.29761212  0.30393600    -0.27800
C242        C  0.00236563  0.31089772  0.29353697     0.01800
C243        C  0.04633841  0.27684817  0.29306028     0.29900
C244        C  0.04646428  0.23050831  0.30291619    -0.19500
C245        C  0.00255964  0.21678039  0.31297146    -0.28900
C246        C  0.95864099  0.25089174  0.31335895     0.44000
C247        C  0.00009739  0.35989270  0.28310794     0.05200
O248        O  0.08909163  0.28819079  0.28290912    -0.57500
H249        H  0.08066964  0.20496368  0.30253252     0.18100
O250        O  0.91510587  0.23967163  0.32317069    -0.64200
H251        H  0.92567978  0.32386093  0.30489014     0.16500
C252        C  0.95565064  0.37121710  0.27297759     0.28800
C253        C  0.95362806  0.41752232  0.26331276    -0.25100
C254        C  0.99682393  0.45273612  0.26253789    -0.24400
C255        C  0.03993994  0.44263419  0.27379894     0.40200
C256        C  0.04141555  0.39652818  0.28372403    -0.26800
O257        O  0.91469937  0.33593990  0.27180501    -0.58700
H258        H  0.91730405  0.42494471  0.25656941     0.15900
O259        O  0.08257702  0.47592475  0.27430954    -0.60100
H260        H  0.07521586  0.38935086  0.29190580     0.14300
H261        H  0.92187790  0.25658564  0.33448317     0.46200
H262        H  0.88459687  0.35297666  0.27778758     0.41600
H263        H  0.07933677  0.49540408  0.28535442     0.45000
H264        H  0.08166677  0.27090785  0.27168892     0.36500
C265        C  0.03887769  0.23918606  0.44219554    -0.27800
C266        C  0.99666182  0.27448616  0.44393133     0.01800
C267        C  0.95468257  0.27227072  0.43209209     0.29900
C268        C  0.95558971  0.23528817  0.41868612    -0.19500
C269        C  0.99832894  0.20068994  0.41673875    -0.28900
C270        C  0.04005517  0.20258438  0.42868890     0.44000
C271        C  0.99860144  0.31586712  0.45737474     0.05200
O272        O  0.91448347  0.30841094  0.43285338    -0.57500
H273        H  0.92355483  0.23488781  0.40946443     0.18100
O274        O  0.08148655  0.16800354  0.42754638    -0.64200
H275        H  0.07131156  0.24042160  0.45126014     0.16500
C276        C  0.95754530  0.32197586  0.46941733     0.28800
C277        C  0.95767173  0.36509289  0.48069579    -0.25100
C278        C  0.99926186  0.40162518  0.48053556    -0.24400
C279        C  0.04178448  0.39368887  0.46913151     0.40200
C280        C  0.04112858  0.35121982  0.45763122    -0.26800
O281        O  0.91650900  0.28677444  0.46998145    -0.58700
H282        H  0.92420889  0.37100335  0.48908674     0.22700
O283        O  0.08321674  0.42845726  0.46867329    -0.60100
H284        H  0.07313989  0.34682394  0.44849882     0.14300
H285        H  0.11008233  0.18795181  0.42177224     0.46200
H286        H  0.92999538  0.25627023  0.47663019     0.41600
H287        H  0.10736767  0.41674207  0.47794552     0.45000
H288        H  0.88294665  0.28819658  0.43654298     0.36500
C289        C  0.95201981  0.74221797  0.43752456    -0.27800
C290        C  0.99804947  0.73234968  0.44699794     0.01800
C291        C  0.04355219  0.76250003  0.44346965     0.29900
C292        C  0.04318840  0.79974047  0.43015725    -0.19500
C293        C  0.99751092  0.80849627  0.42036147    -0.28900
C294        C  0.95131936  0.78003098  0.42442791     0.44000
C295        C  0.99919092  0.68768836  0.45942170     0.05200
O296        O  0.08886780  0.75533571  0.45278979    -0.57500
H297        H  0.07895354  0.82155622  0.42742506     0.18100
O298        O  0.90552391  0.78757352  0.41539131    -0.64200
H299        H  0.91683550  0.71904741  0.43979333     0.16500
C300        C  0.95915093  0.68058387  0.47182722     0.28800
C301        C  0.95897520  0.63546971  0.48228742    -0.25100
C302        C  0.99849496  0.59702008  0.48065505    -0.24400
C303        C  0.03928073  0.60497877  0.46859133     0.40200
C304        C  0.03913496  0.64959796  0.45804342    -0.26800
O305        O  0.92073315  0.71807774  0.47405055    -0.58700
H306        H  0.92733619  0.63008590  0.49148727     0.15900
O307        O  0.07930472  0.56898275  0.46688212    -0.60100
H308        H  0.06983927  0.65376979  0.44844504     0.14300
H309        H  0.90648402  0.76117479  0.40594630     0.46200
H310        H  0.88769978  0.70163043  0.46978015     0.41600
H311        H  0.10645868  0.58014722  0.47532621     0.45000
H312        H  0.08555886  0.77944838  0.46282082     0.36500
C313        C  0.32207769  0.05083493  0.47113021    -0.27800
C314        C  0.31593929  0.00943422  0.45921420     0.01800
C315        C  0.35435688  0.96936833  0.45846774     0.29900
C316        C  0.39779622  0.97108115  0.46951995    -0.19500
C317        C  0.40408626  0.01250876  0.48135961    -0.28900
C318        C  0.36599466  0.05283320  0.48203903     0.44000
C319        C  0.27204995  0.01074900  0.44659839     0.05200
O320        O  0.35183658  0.93065559  0.44609969    -0.57500
H321        H  0.42741843  0.94041024  0.46859666     0.18100
O322        O  0.37227062  0.09527680  0.49283331    -0.64200
H323        H  0.29332733  0.08238304  0.47167628     0.16500
C324        C  0.23911347  0.96667439  0.44392111     0.28800
C325        C  0.20243777  0.96683245  0.43046838    -0.25100
C326        C  0.19676106  0.01119185  0.41981904    -0.24400
C327        C  0.22755258  0.05644949  0.42318101     0.40200
C328        C  0.26482866  0.05588324  0.43644437    -0.26800
O329        O  0.24277066  0.92304001  0.45426405    -0.58700
H330        H  0.17849115  0.93201117  0.42833158     0.15900
O331        O  0.22286204  0.10094222  0.41328039    -0.60100
H332        H  0.28955390  0.09026289  0.43839269     0.14300
H333        H  0.39552248  0.12004923  0.48651285     0.46200
H334        H  0.22241737  0.93203628  0.46478003     0.41600
H335        H  0.24902997  0.09657024  0.40389782     0.45000
H336        H  0.34588908  0.89724994  0.45244454     0.36500
C337        C  0.73344904  0.05539506  0.43359242    -0.27800
C338        C  0.72678134  0.01130245  0.44433872     0.01800
C339        C  0.75859680  0.96642318  0.44138491     0.29900
C340        C  0.79450513  0.96554630  0.42765186    -0.19500
C341        C  0.80087608  0.00953589  0.41688618    -0.28900
C342        C  0.77054835  0.05513356  0.42020215     0.44000
C343        C  0.68463053  0.01144549  0.45783554     0.05200
O344        O  0.75496929  0.92299993  0.45182500    -0.57500
H345        H  0.81780091  0.93031979  0.42551780     0.18100
O346        O  0.77489271  0.09891013  0.40994721    -0.64200
H347        H  0.70884851  0.08993194  0.43526084     0.16500
C348        C  0.67611315  0.05546087  0.46872292     0.28800
C349        C  0.63310489  0.05618959  0.48010443    -0.25100
C350        C  0.59885350  0.01285570  0.48127383    -0.24400
C351        C  0.60854443  0.96814719  0.47097185     0.40200
C352        C  0.65047213  0.96793247  0.45925693    -0.26800
O353        O  0.70891458  0.09844907  0.46813452    -0.58700
H354        H  0.62557513  0.09141642  0.48760319     0.15900
O355        O  0.57582815  0.92512213  0.47178423    -0.60100
H356        H  0.65517789  0.93407282  0.45086849     0.14300
H357        H  0.79926428  0.12287760  0.41617241     0.46200
H358        H  0.73767013  0.09044744  0.47636251     0.41600
H359        H  0.59094277  0.90243856  0.48092105     0.45000
H360        H  0.77740500  0.93122728  0.46192349     0.36500
C361        C  0.32308352  0.97290742  0.53033854    -0.27800
C362        C  0.31539647  0.01219957  0.54289753     0.01800
C363        C  0.35231978  0.05361040  0.54417754     0.29900
C364        C  0.39570138  0.05534110  0.53302117    -0.19500
C365        C  0.40365887  0.01599007  0.52052528    -0.28900
C366        C  0.36698257  0.97425601  0.51933889     0.44000
C367        C  0.27118955  0.00765991  0.55544610     0.05200
O368        O  0.34842367  0.09037720  0.55712130    -0.57500
H369        H  0.42402671  0.08709657  0.53439270     0.18100
O370        O  0.37466654  0.93351228  0.50796934    -0.64200
H371        H  0.29554048  0.94035823  0.52932788     0.16500
C372        C  0.23616116  0.04987244  0.55842999     0.28800
C373        C  0.19870259  0.04669557  0.57165823    -0.25100
C374        C  0.19424550  0.00112095  0.58182665    -0.24400
C375        C  0.22740316  0.95775914  0.57821427     0.40200
C376        C  0.26541460  0.96130850  0.56514640    -0.26800
O377        O  0.23835784  0.09458377  0.54854557    -0.58700
H378        H  0.17303591  0.08012434  0.57397051     0.15900
O379        O  0.22427071  0.91227915  0.58769756    -0.60100
H380        H  0.29172145  0.92828963  0.56298064     0.14300
H381        H  0.39695326  0.90772219  0.51421149     0.46200
H382        H  0.21647812  0.08664184  0.53827210     0.41600
H383        H  0.25016086  0.91685740  0.59714830     0.45000
H384        H  0.34051379  0.12427466  0.55130675     0.36500
C385        C  0.76497929  0.98240911  0.55638612    -0.27800
C386        C  0.72468383  0.02041885  0.55693277     0.01800
C387        C  0.72238528  0.05566399  0.57099970     0.29900
C388        C  0.76008072  0.05261744  0.58410861    -0.19500
C389        C  0.79949130  0.01391815  0.58370433    -0.28900
C390        C  0.80203157  0.97884790  0.56967513     0.44000
C391        C  0.68316305  0.02018836  0.54346356     0.05200
O392        O  0.68115422  0.09033063  0.57271974    -0.57500
H393        H  0.75716932  0.07932529  0.59498736     0.18100
O394        O  0.84047018  0.94095217  0.56882984    -0.64200
H395        H  0.76734908  0.95498374  0.54568932     0.16500
C396        C  0.66769139  0.06682742  0.53494803     0.28800
C397        C  0.62482383  0.06598427  0.52362002    -0.25100
C398        C  0.59844601  0.01864276  0.52002552    -0.24400
C399        C  0.61540000  0.97166371  0.52782349     0.40200
C400        C  0.65727974  0.97265063  0.53950311    -0.26800
O401        O  0.69365679  0.11353292  0.53775787    -0.58700
H402        H  0.61145597  0.10253920  0.51790125     0.15900
O403        O  0.58954816  0.92505665  0.52473735    -0.60100
H404        H  0.66850332  0.93640679  0.54589780     0.14300
H405        H  0.87097636  0.95846640  0.56325132     0.46200
H406        H  0.72571065  0.11165927  0.53046597     0.41600
H407        H  0.60611004  0.91050638  0.51417570     0.45000
H408        H  0.69703167  0.12607866  0.57210588     0.36500
C409        C  0.94174021  0.33764880  0.53665650    -0.27800
C410        C  0.98926117  0.31826538  0.54351730     0.01800
C411        C  0.03725907  0.34007931  0.53758910     0.29900
C412        C  0.03704432  0.38082392  0.52541588    -0.19500
C413        C  0.98950382  0.40157705  0.51929312    -0.28900
C414        C  0.94161721  0.37988206  0.52504209     0.44000
C415        C  0.98843842  0.27750419  0.55741341     0.05200
O416        O  0.08460932  0.32366627  0.54417704    -0.57500
H417        H  0.07410358  0.39809739  0.52137200     0.18100
O418        O  0.89446074  0.40031386  0.51959326    -0.64200
H419        H  0.90440570  0.32095445  0.54064014     0.16500
C420        C  0.95445365  0.28232785  0.57176043     0.28800
C421        C  0.95621349  0.24502053  0.58505176    -0.25100
C422        C  0.99219431  0.20309618  0.58456400    -0.24400
C423        C  0.02571586  0.19773511  0.57023585     0.40200
C424        C  0.02322887  0.23429455  0.55673565    -0.26800
O425        O  0.92167109  0.32508244  0.57344361    -0.58700
H426        H  0.93041320  0.24988982  0.59606554     0.15900
O427        O  0.06078353  0.15668435  0.56922160    -0.60100
H428        H  0.04881888  0.22888944  0.54570927     0.14300
H429        H  0.88597739  0.42877098  0.52793663     0.46200
H430        H  0.88547572  0.31102159  0.57190217     0.41600
H431        H  0.04078650  0.12720546  0.56390729     0.45000
H432        H  0.08986064  0.34493506  0.55477241     0.36500
C433        C  0.02977781  0.67864060  0.52971397    -0.27800
C434        C  0.99051147  0.68407545  0.54235248     0.01800
C435        C  0.95059867  0.64552126  0.54345727     0.29900
C436        C  0.95031167  0.60275518  0.53206667    -0.19500
C437        C  0.99040338  0.59640914  0.51976397    -0.28900
C438        C  0.03069795  0.63466678  0.51877197     0.44000
C439        C  0.99286295  0.72826015  0.55494313     0.05200
O440        O  0.91268719  0.64822014  0.55602544    -0.57500
H441        H  0.91933358  0.57349194  0.53316823     0.18100
O442        O  0.07214344  0.62868300  0.50760883    -0.64200
H443        H  0.06067676  0.70794061  0.52860576     0.16500
C444        C  0.03897508  0.73818269  0.56452342     0.28800
C445        C  0.03896845  0.77693975  0.57739062    -0.25100
C446        C  0.99338018  0.80632651  0.58102814    -0.24400
C447        C  0.94789752  0.79789907  0.57096378     0.40200
C448        C  0.94791612  0.75915851  0.55806452    -0.26800
O449        O  0.08314290  0.70776153  0.56222684    -0.58700
H450        H  0.07440282  0.78262226  0.58494833     0.15900
O451        O  0.90300197  0.82675564  0.57372771    -0.60100
H452        H  0.91241423  0.75278939  0.55059397     0.14300
H453        H  0.09745576  0.60538603  0.51364750     0.46200
H454        H  0.10863781  0.73072246  0.55610144     0.41600
H455        H  0.90447672  0.85564429  0.56515465     0.45000
H456        H  0.92801850  0.62971373  0.56608481     0.36500
C457        C  0.18764782  0.45988476  0.19145992    -0.27800
C458        C  0.17630107  0.50347675  0.20201424     0.01800
C459        C  0.21249242  0.54565595  0.20276302     0.29900
C460        C  0.25931007  0.54339042  0.19317058    -0.19500
C461        C  0.27105787  0.49918358  0.18292901    -0.28900
C462        C  0.23444063  0.45744347  0.18201084     0.44000
C463        C  0.12890215  0.50191410  0.21322234     0.05200
O464        O  0.20404415  0.58755958  0.21364372    -0.57500
H465        H  0.28699773  0.57586582  0.19402141     0.18100
O466        O  0.24361007  0.41418181  0.17180107    -0.64200
H467        H  0.16013459  0.42725223  0.19063118     0.16500
C468        C  0.09186457  0.54309214  0.21366786     0.28800
C469        C  0.04977158  0.54115933  0.22531776    -0.25100
C470        C  0.04312856  0.49848900  0.23688590    -0.24400
C471        C  0.07673940  0.45396826  0.23438549     0.40200
C472        C  0.11994724  0.45718226  0.22331042    -0.26800
O473        O  0.09616106  0.58531406  0.20274609    -0.58700
H474        H  0.02280216  0.57420903  0.22570707     0.15900
O475        O  0.06740583  0.40602933  0.24190468    -0.60100
H476        H  0.14647500  0.42377472  0.22246220     0.14300
H477        H  0.22852562  0.42330385  0.16041806     0.46200
H478        H  0.08009082  0.57334221  0.19176330     0.41600
H479        H  0.04555064  0.38615471  0.23350716     0.45000
H480        H  0.19724910  0.61821755  0.20605068     0.36500
C481        C  0.86494646  0.54802939  0.22913988    -0.27800
C482        C  0.85183416  0.50377656  0.21921482     0.01800
C483        C  0.88792475  0.46187791  0.21818080     0.29900
C484        C  0.93469035  0.46360268  0.22774500    -0.19500
C485        C  0.94626908  0.50574109  0.23914485    -0.28900
C486        C  0.91203710  0.55037202  0.23846994     0.44000
C487        C  0.80239213  0.50408098  0.20895633     0.05200
O488        O  0.87902483  0.42021828  0.20723125    -0.57500
H489        H  0.96150822  0.43055175  0.22671584     0.18100
O490        O  0.92455857  0.59776409  0.24594367    -0.64200
H491        H  0.83888123  0.58188562  0.22937167     0.16500
C492        C  0.76597731  0.46205262  0.20963374     0.28800
C493        C  0.72087336  0.46286260  0.19922329    -0.25100
C494        C  0.71040499  0.50596734  0.18841673    -0.24400
C495        C  0.74591212  0.54882494  0.18822982     0.40200
C496        C  0.79133251  0.54755492  0.19839952    -0.26800
O497        O  0.77382820  0.42019137  0.22049032    -0.58700
H498        H  0.69386764  0.42975143  0.19965717     0.15900
O499        O  0.73764982  0.59152621  0.17775696    -0.60100
H500        H  0.81872767  0.58030903  0.19772716     0.14300
H501        H  0.94259812  0.61830899  0.23682679     0.46200
H502        H  0.76002300  0.43194230  0.23181199     0.41600
H503        H  0.75593963  0.58287377  0.16683002     0.45000
H504        H  0.87396254  0.38904729  0.21474427     0.36500
C505        C  0.54242485  0.17098228  0.03198999    -0.27800
C506        C  0.50184877  0.17912224  0.04401659     0.01800
C507        C  0.45859188  0.14423626  0.04427206     0.29900
C508        C  0.45629056  0.10221428  0.03264835    -0.19500
C509        C  0.49711208  0.09357517  0.02080639    -0.28900
C510        C  0.54061520  0.12811070  0.02058329     0.44000
C511        C  0.50526544  0.22273017  0.05671049     0.05200
O512        O  0.41912401  0.14989423  0.05621230    -0.57500
H513        H  0.42309449  0.07532589  0.03316177     0.18100
O514        O  0.58229501  0.11930125  0.00971023    -0.64200
H515        H  0.57598249  0.19740052  0.03164613     0.16500
C516        C  0.54862693  0.22729164  0.06793879     0.28800
C517        C  0.54826749  0.26545847  0.08101652    -0.25100
C518        C  0.50486481  0.29917303  0.08316755    -0.24400
C519        C  0.46248676  0.29593761  0.07148583     0.40200
C520        C  0.46300894  0.25804947  0.05838474    -0.26800
O521        O  0.58974630  0.19228537  0.06699625    -0.58700
H522        H  0.58112284  0.26724130  0.08990500     0.15900
O523        O  0.41994405  0.32903569  0.07288249    -0.60100
H524        H  0.42973907  0.25551574  0.04967759     0.14300
H525        H  0.60521958  0.09382595  0.01583724     0.46200
H526        H  0.61874567  0.21189175  0.06131047     0.41600
H527        H  0.42978341  0.36104259  0.06629174     0.45000
H528        H  0.43171758  0.13087965  0.06656969     0.36500
C529        C  0.54181285  0.85080569  0.04304996    -0.27800
C530        C  0.50296410  0.81156581  0.04185607     0.01800
C531        C  0.46417767  0.81539277  0.02888919     0.29900
C532        C  0.46299364  0.85939527  0.01804541    -0.19500
C533        C  0.50101294  0.89928103  0.01964614    -0.28900
C534        C  0.54155580  0.89384476  0.03191509     0.44000
C535        C  0.50119918  0.76922076  0.05498921     0.05200
O536        O  0.42650508  0.77699779  0.02697999    -0.57500
H537        H  0.43151596  0.86305383  0.00870883     0.18100
O538        O  0.58018628  0.93146161  0.03352473    -0.64200
H539        H  0.57158611  0.84906625  0.05302268     0.16500
C540        C  0.54689523  0.74117414  0.05973757     0.28800
C541        C  0.54483666  0.70458849  0.07317233    -0.25100
C542        C  0.49742550  0.69469239  0.08192370    -0.24400
C543        C  0.45154033  0.72212483  0.07697154     0.40200
C544        C  0.45379342  0.75910288  0.06368817    -0.26800
O545        O  0.59387879  0.74946365  0.05142894    -0.58700
H546        H  0.58053514  0.68388483  0.07673362     0.15900
O547        O  0.40442864  0.71410753  0.08522936    -0.60100
H548        H  0.41852397  0.78110137  0.06052546     0.14300
H549        H  0.60525271  0.92425485  0.02400436     0.46200
H550        H  0.59284270  0.72600943  0.04119006     0.41600
H551        H  0.40359125  0.74058706  0.09463525     0.45000
H552        H  0.44348152  0.74911858  0.01991256     0.36500
C553        C  0.45895370  0.17357747  0.97008283    -0.27800
C554        C  0.50134456  0.17933168  0.95860553     0.01800
C555        C  0.54385889  0.14381823  0.95936335     0.29900
C556        C  0.54255057  0.10196920  0.97098188    -0.19500
C557        C  0.49921408  0.09488000  0.98194432    -0.28900
C558        C  0.45757748  0.13144057  0.98168319     0.44000
C559        C  0.49945090  0.22013784  0.94510122     0.05200
O560        O  0.58579227  0.14839680  0.94830984    -0.57500
H561        H  0.57469543  0.07382606  0.97107037     0.18100
O562        O  0.41459622  0.12513570  0.99219056    -0.64200
H563        H  0.42621099  0.20096020  0.96968620     0.16500
C564        C  0.45850148  0.22034780  0.93288981     0.28800
C565        C  0.45863823  0.25754743  0.91963054    -0.25100
C566        C  0.49958225  0.29451715  0.91824138    -0.24400
C567        C  0.54015724  0.29464886  0.93060523     0.40200
C568        C  0.53994723  0.25758520  0.94390458    -0.26800
O569        O  0.41993475  0.18239190  0.93324092    -0.58700
H570        H  0.42738024  0.25647613  0.91013589     0.15900
O571        O  0.57965499  0.33141201  0.93001581    -0.60100
H572        H  0.57148815  0.25798690  0.95330775     0.14300
H573        H  0.38941627  0.10342184  0.98543911     0.46200
H574        H  0.38867487  0.19998039  0.93832246     0.41600
H575        H  0.56469784  0.36291623  0.93582552     0.45000
H576        H  0.57560171  0.12803847  0.93791315     0.36500
C577        C  0.53559004  0.82358805  0.96857958    -0.27800
C578        C  0.49317036  0.81585201  0.95720240     0.01800
C579        C  0.44997633  0.85075668  0.95787565     0.29900
C580        C  0.44986759  0.89261291  0.96962525    -0.19500
C581        C  0.49276487  0.90101090  0.98068496    -0.28900
C582        C  0.53593129  0.86624029  0.98008312     0.44000
C583        C  0.49500169  0.77281781  0.94419242     0.05200
O584        O  0.40846830  0.84543320  0.94669317    -0.57500
H585        H  0.41676871  0.91961578  0.96978932     0.18100
O586        O  0.57929255  0.87456035  0.99026925    -0.64200
H587        H  0.56901177  0.79704419  0.96831829     0.16500
C588        C  0.53812929  0.76773596  0.93287528     0.28800
C589        C  0.53773366  0.72869075  0.92008424    -0.25100
C590        C  0.49446465  0.69456255  0.91818797    -0.24400
C591        C  0.45164980  0.69918524  0.92965559     0.40200
C592        C  0.45229534  0.73785155  0.94256249    -0.26800
O593        O  0.57929986  0.80283021  0.93352456    -0.58700
H594        H  0.57080875  0.72620918  0.91129207     0.15900
O595        O  0.40880126  0.66640844  0.92833921    -0.60100
H596        H  0.41905936  0.74081723  0.95127284     0.14300
H597        H  0.60095329  0.90081087  0.98398859     0.46200
H598        H  0.60905778  0.78298277  0.93866005     0.41600
H599        H  0.41845589  0.63431244  0.93489711     0.45000
H600        H  0.41932273  0.86461461  0.93614494     0.36500
C601        C  0.01750605  0.40541932  0.71250045    -0.27800
C602        C  0.00586926  0.35709321  0.72039298     0.01800
C603        C  0.99568940  0.35626572  0.73811507     0.29900
C604        C  0.99493862  0.40342717  0.74749882    -0.19500
C605        C  0.00167909  0.45326950  0.73955348    -0.28900
C606        C  0.01674048  0.45299120  0.72187882     0.44000
C607        C  0.00580016  0.30755923  0.71012332     0.05200
O608        O  0.98816634  0.30922750  0.74649338    -0.57500
H609        H  0.98686738  0.40104918  0.76113363     0.18100
O610        O  0.03261745  0.49804345  0.71363379    -0.64200
H611        H  0.02764242  0.40627353  0.69894795     0.16500
C612        C  0.95936191  0.27786428  0.70792746     0.28800
C613        C  0.95970478  0.23239669  0.69756659    -0.25100
C614        C  0.00618651  0.21517846  0.68944488    -0.24400
C615        C  0.05304892  0.24432609  0.69210888     0.40200
C616        C  0.05243196  0.29016123  0.70227711    -0.26800
O617        O  0.91288566  0.29457094  0.71514380    -0.58700
H618        H  0.92317218  0.21098830  0.69571016     0.15900
O619        O  0.09963696  0.22895154  0.68469010    -0.60100
H620        H  0.08854851  0.31240089  0.70399425     0.14300
H621        H  0.07146615  0.49534888  0.71270282     0.46200
H622        H  0.90493524  0.26880715  0.72437628     0.41600
H623        H  0.10228417  0.24962036  0.67389825     0.45000
H624        H  0.95062393  0.30915904  0.75008406     0.36500
C625        C  0.94672318  0.72984453  0.70824279    -0.27800
C626        C  0.99371731  0.70304860  0.71204103     0.01800
C627        C  0.04116376  0.72115440  0.70465683     0.29900
C628        C  0.04086186  0.76444440  0.69343023    -0.19500
C629        C  0.99370405  0.79035435  0.68919794    -0.28900
C630        C  0.94636574  0.77299295  0.69693902     0.44000
C631        C  0.99242144  0.65445313  0.72282434     0.05200
O632        O  0.08741675  0.69433557  0.70731238    -0.57500
H633        H  0.07766833  0.77656639  0.68757386     0.18100
O634        O  0.89945055  0.79775720  0.69358531    -0.64200
H635        H  0.90992208  0.71676654  0.71389167     0.16500
C636        C  0.02563030  0.64852945  0.73714757     0.28800
C637        C  0.02683375  0.60062222  0.74612889    -0.25100
C638        C  0.99542393  0.55685514  0.74115928    -0.24400
C639        C  0.95787406  0.56572865  0.72790486     0.40200
C640        C  0.95778682  0.61322981  0.71862758    -0.26800
O641        O  0.05487282  0.69046805  0.74304666    -0.58700
H642        H  0.05173137  0.59904234  0.75739336     0.15900
O643        O  0.92277973  0.52704465  0.72327282    -0.60100
H644        H  0.93081178  0.61755263  0.70791319     0.14300
H645        H  0.88214272  0.77590719  0.68460314     0.46200
H646        H  0.09220037  0.67898073  0.74247867     0.41600
H647        H  0.88808073  0.53931724  0.72755676     0.45000
H648        H  0.11077028  0.71926536  0.71354778     0.36500
C649        C  0.09415582  0.48065628  0.78979220    -0.27800
C650        C  0.14219236  0.49409545  0.78214618     0.01800
C651        C  0.14342059  0.50697437  0.76463245     0.29900
C652        C  0.09665498  0.50796581  0.75513289    -0.19500
C653        C  0.04691377  0.49910092  0.76290303    -0.28900
C654        C  0.04700400  0.48169047  0.78035996     0.44000
C655        C  0.19103471  0.49309398  0.79250116     0.05200
O656        O  0.19039640  0.51737510  0.75657648    -0.57500
H657        H  0.09911068  0.51767960  0.74160351     0.18100
O658        O  0.00215544  0.46387258  0.78831936    -0.64200
H659        H  0.09324796  0.46864000  0.80317371     0.16500
C660        C  0.21632189  0.54018810  0.79736154     0.28800
C661        C  0.26141932  0.53848549  0.80773808    -0.25100
C662        C  0.28199519  0.49005909  0.81347264    -0.24400
C663        C  0.25699837  0.44281802  0.80822917     0.40200
C664        C  0.21165930  0.44470414  0.79796289    -0.26800
O665        O  0.19668998  0.58809440  0.79227306    -0.58700
H666        H  0.27975144  0.57532756  0.81153949     0.15900
O667        O  0.27535251  0.39459544  0.81347214    -0.60100
H668        H  0.19235578  0.40822215  0.79428611     0.14300
H669        H  0.00722733  0.42538344  0.78991662     0.46200
H670        H  0.17136276  0.59844935  0.80142065     0.41600
H671        H  0.29993333  0.38306489  0.80426540     0.45000
H672        H  0.19340918  0.55638596  0.75647315     0.36500
C673        C  0.88897832  0.53942523  0.78483131    -0.27800
C674        C  0.84894386  0.50319305  0.78100594     0.01800
C675        C  0.85485141  0.46968384  0.76673739     0.29900
C676        C  0.90137704  0.47076233  0.75708519    -0.19500
C677        C  0.94419263  0.50393885  0.76160117    -0.28900
C678        C  0.93552002  0.54094073  0.77510603     0.44000
C679        C  0.80087090  0.50121235  0.79185388     0.05200
O680        O  0.81419818  0.43747115  0.76163460    -0.57500
H681        H  0.90277659  0.44582068  0.74579667     0.18100
O682        O  0.97376880  0.57660260  0.77965262    -0.64200
H683        H  0.88449030  0.56631253  0.79560279     0.16500
C684        C  0.78489588  0.45394549  0.79982396     0.28800
C685        C  0.73971024  0.45306050  0.81014210    -0.25100
C686        C  0.71034195  0.49920211  0.81307706    -0.24400
C687        C  0.72630115  0.54650528  0.80502684     0.40200
C688        C  0.77130167  0.54722215  0.79458492    -0.26800
O689        O  0.81402661  0.40869382  0.79802466    -0.58700
H690        H  0.72865305  0.41636041  0.81629363     0.15900
O691        O  0.69882320  0.59250893  0.80744369    -0.60100
H692        H  0.78315051  0.58388887  0.78856013     0.14300
H693        H  0.96002441  0.61150625  0.77606472     0.46200
H694        H  0.84112311  0.41055125  0.80721543     0.41600
H695        H  0.67158077  0.59267741  0.79829120     0.45000
H696        H  0.82680496  0.40088385  0.76353592     0.36500
C697        C  0.62251586  0.94147790  0.72519995    -0.27800
C698        C  0.63482387  0.98675962  0.71574622     0.01800
C699        C  0.59966702  0.02948132  0.71603438     0.29900
C700        C  0.55467358  0.02755637  0.72639425    -0.19500
C701        C  0.54426758  0.98440100  0.73745397    -0.28900
C702        C  0.57726916  0.93910590  0.73556063     0.44000
C703        C  0.68447667  0.98905136  0.70566995     0.05200
O704        O  0.60977669  0.07420153  0.70667853    -0.57500
H705        H  0.52894653  0.06165764  0.72655052     0.18100
O706        O  0.56548993  0.89166528  0.74311541    -0.64200
H707        H  0.64787076  0.90716914  0.72434717     0.16500
C708        C  0.73364478  0.98003495  0.71363108     0.28800
C709        C  0.78021268  0.98301711  0.70397554    -0.25100
C710        C  0.77843667  0.99553542  0.68644206    -0.24400
C711        C  0.72950776  0.00391034  0.67841369     0.40200
C712        C  0.68295211  0.00084503  0.68802280    -0.26800
O713        O  0.73661800  0.96876937  0.73086957    -0.58700
H714        H  0.81774879  0.97589327  0.71019348     0.15900
O715        O  0.72686735  0.01481086  0.66114093    -0.60100
H716        H  0.64551773  0.00717015  0.68165059     0.14300
H717        H  0.55696666  0.86707038  0.73354989     0.46200
H718        H  0.73482723  0.00345445  0.73677575     0.41600
H719        H  0.72451649  0.97991015  0.65538844     0.45000
H720        H  0.63176743  0.09664828  0.71430012     0.36500
C721        C  0.27161991  0.95698653  0.70739841    -0.27800
C722        C  0.30809447  0.99843432  0.70566692     0.01800
C723        C  0.29770625  0.03930319  0.69392419     0.29900
C724        C  0.25111694  0.03876496  0.68434241    -0.19500
C725        C  0.21467290  0.99742123  0.68601669    -0.28900
C726        C  0.22515458  0.95623107  0.69765101     0.44000
C727        C  0.35707529  0.99824520  0.71603567     0.05200
O728        O  0.33439907  0.07809296  0.69097115    -0.57500
H729        H  0.24434900  0.07012461  0.67514622     0.18100
O730        O  0.19035818  0.91524514  0.69962131    -0.64200
H731        H  0.27914591  0.92525715  0.71639716     0.16500
C732        C  0.37084328  0.04143189  0.72647817     0.28800
C733        C  0.41658879  0.03983863  0.73644269    -0.25100
C734        C  0.44798028  0.99382107  0.73739371    -0.24400
C735        C  0.43562350  0.95200564  0.72578997     0.40200
C736        C  0.39042670  0.95437410  0.71547393    -0.26800
O737        O  0.33932062  0.08530080  0.72731797    -0.58700
H738        H  0.42646732  0.07524556  0.74346434     0.15900
O739        O  0.46721480  0.90822472  0.72461324    -0.60100
H740        H  0.38119113  0.92146767  0.70706166     0.14300
H741        H  0.16563893  0.92691746  0.70877680     0.46200
H742        H  0.31336664  0.07766467  0.73653624     0.41600
H743        H  0.44602279  0.87835023  0.72891133     0.45000
H744        H  0.31757767  0.11156468  0.69471045     0.36500
C745        C  0.55117964  0.19515358  0.80328803    -0.27800
C746        C  0.50814308  0.18305735  0.79260894     0.01800
C747        C  0.46512100  0.21842467  0.79219675     0.29900
C748        C  0.46476394  0.26339930  0.80278685    -0.19500
C749        C  0.50759888  0.27510966  0.81358607    -0.28900
C750        C  0.55141102  0.24074852  0.81355105     0.44000
C751        C  0.50740823  0.13271510  0.78251181     0.05200
O752        O  0.42302345  0.20936108  0.78151652    -0.57500
H753        H  0.43086036  0.28934407  0.80249456     0.18100
O754        O  0.59412506  0.25026016  0.82391870    -0.64200
H755        H  0.58426349  0.16834121  0.80413383     0.16500
C756        C  0.55086604  0.11612784  0.77261031     0.28800
C757        C  0.54801666  0.06952876  0.76285696    -0.25100
C758        C  0.50128914  0.03891432  0.76198918    -0.24400
C759        C  0.45994448  0.05341475  0.77343448     0.40200
C760        C  0.46294204  0.09993579  0.78318290    -0.26800
O761        O  0.59567181  0.14637374  0.77173308    -0.58700
H762        H  0.58332160  0.05801769  0.75607341     0.15900
O763        O  0.41482629  0.02383073  0.77450618    -0.60100
H764        H  0.42999042  0.11038688  0.79137975     0.14300
H765        H  0.58659345  0.23119342  0.83478610     0.46200
H766        H  0.62298329  0.12627879  0.77806658     0.41600
H767        H  0.41725689  0.00503684  0.78568029     0.45000
H768        H  0.43311233  0.22521986  0.77032504     0.36500
C769        C  0.44498534  0.86730066  0.77595806    -0.27800
C770        C  0.48974326  0.85468144  0.78559740     0.01800
C771        C  0.53367931  0.88840480  0.78483703     0.29900
C772        C  0.53349579  0.93181229  0.77374293    -0.19500
C773        C  0.49059440  0.94214090  0.76261336    -0.28900
C774        C  0.44420022  0.91101592  0.76495237     0.44000
C775        C  0.49004853  0.80610188  0.79627564     0.05200
O776        O  0.57730055  0.87913760  0.79479730    -0.57500
H777        H  0.56831566  0.95653410  0.77324308     0.18100
O778        O  0.39647044  0.92548267  0.75808801    -0.64200
H779        H  0.40995404  0.84302843  0.77694059     0.16500
C780        C  0.44817249  0.79436419  0.80759409     0.28800
C781        C  0.44825486  0.74714491  0.81688634    -0.25100
C782        C  0.49045133  0.71160231  0.81550685    -0.24400
C783        C  0.53243161  0.72335848  0.80427551     0.40200
C784        C  0.53181782  0.77006313  0.79469349    -0.26800
O785        O  0.40743568  0.82920739  0.80993497    -0.58700
H786        H  0.41597408  0.73919589  0.82564344     0.15900
O787        O  0.57419469  0.68944697  0.80250701    -0.60100
H788        H  0.56390171  0.77789938  0.78585057     0.14300
H789        H  0.38288582  0.89432115  0.75175627     0.46200
H790        H  0.41971176  0.85387713  0.81902654     0.41600
H791        H  0.56339348  0.66410555  0.79340930     0.45000
H792        H  0.56965810  0.89635441  0.80600646     0.36500
C793        C  0.17657408  0.52615228  0.02920764    -0.27800
C794        C  0.18409348  0.48478009  0.04097679     0.01800
C795        C  0.14700027  0.44343257  0.04156585     0.29900
C796        C  0.10276644  0.44448101  0.03079181    -0.19500
C797        C  0.09476349  0.48624001  0.01925442    -0.28900
C798        C  0.13221864  0.52720731  0.01845281     0.44000
C799        C  0.22713184  0.48808811  0.05389880     0.05200
O800        O  0.15149110  0.40406858  0.05357534    -0.57500
H801        H  0.07378870  0.41318908  0.03175386     0.18100
O802        O  0.12471259  0.56952245  0.00775992    -0.64200
H803        H  0.20438698  0.55858316  0.02875373     0.16500
C804        C  0.26379960  0.44690959  0.05613797     0.28800
C805        C  0.30010762  0.44890269  0.06975352    -0.25100
C806        C  0.30140914  0.49234578  0.08102055    -0.24400
C807        C  0.26595879  0.53441306  0.07833012     0.40200
C808        C  0.22940771  0.53205502  0.06487019    -0.26800
O809        O  0.26430812  0.40450796  0.04513870    -0.58700
H810        H  0.32745454  0.41651530  0.07145392     0.15900
O811        O  0.26531583  0.57730171  0.08913486    -0.60100
H812        H  0.20142225  0.56399570  0.06336485     0.14300
H813        H  0.10345354  0.59496935  0.01454550     0.46200
H814        H  0.28936835  0.41429108  0.03587457     0.41600
H815        H  0.23958000  0.56828880  0.09827245     0.45000
H816        H  0.16136286  0.37202164  0.04697102     0.36500
C817        C  0.81958021  0.45857761  0.03214374    -0.27800
C818        C  0.81329127  0.50137895  0.04349420     0.01800
C819        C  0.85035654  0.54281454  0.04318761     0.29900
C820        C  0.89325172  0.54051111  0.03186291    -0.19500
C821        C  0.89990226  0.49735473  0.02073332    -0.28900
C822        C  0.86264972  0.45619869  0.02090727     0.44000
C823        C  0.77100919  0.49977230  0.05668133     0.05200
O824        O  0.84719791  0.58358642  0.05480517    -0.57500
H825        H  0.92222104  0.57195199  0.03205653     0.18100
O826        O  0.86902321  0.41260004  0.01062883    -0.64200
H827        H  0.79171429  0.42616417  0.03234606     0.16500
C828        C  0.73530202  0.54181336  0.05890138     0.28800
C829        C  0.69864678  0.54056656  0.07239122    -0.25100
C830        C  0.69598170  0.49705329  0.08353638    -0.24400
C831        C  0.73040944  0.45414919  0.08087291     0.40200
C832        C  0.76747944  0.45581868  0.06757148    -0.26800
O833        O  0.73582364  0.58420459  0.04796075    -0.58700
H834        H  0.67204808  0.57361099  0.07407742     0.15900
O835        O  0.72931910  0.41093906  0.09146925    -0.60100
H836        H  0.79460886  0.42313358  0.06604241     0.14300
H837        H  0.89286048  0.38893613  0.01713664     0.46200
H838        H  0.71343245  0.57352420  0.03807356     0.41600
H839        H  0.75330114  0.41979644  0.10112870     0.45000
H840        H  0.83848761  0.61528137  0.04790214     0.36500
C841        C  0.22792508  0.43976975  0.93433560    -0.27800
C842        C  0.22196597  0.48434267  0.94492963     0.01800
C843        C  0.25689497  0.52717591  0.94289464     0.29900
C844        C  0.29476658  0.52625228  0.92974220    -0.19500
C845        C  0.29922865  0.48261298  0.91867701    -0.28900
C846        C  0.26623208  0.43854660  0.92135357     0.44000
C847        C  0.17777730  0.48644522  0.95749259     0.05200
O848        O  0.25538524  0.56916522  0.95410111    -0.57500
H849        H  0.32073003  0.55988575  0.92820464     0.18100
O850        O  0.26997420  0.39460220  0.91108475    -0.64200
H851        H  0.20166734  0.40632874  0.93577456     0.16500
C852        C  0.14227081  0.52924638  0.95754758     0.28800
C853        C  0.10005662  0.53002468  0.96906960    -0.25100
C854        C  0.09131155  0.48790821  0.98037928    -0.24400
C855        C  0.12561427  0.44431548  0.98005324     0.40200
C856        C  0.16882991  0.44402756  0.96878777    -0.26800
O857        O  0.14718320  0.56963430  0.94593430    -0.58700
H858        H  0.07312040  0.56319446  0.96890438     0.15900
O859        O  0.11637235  0.40128352  0.99029866    -0.60100
H860        H  0.19499774  0.41026956  0.96868905     0.14300
H861        H  0.24443655  0.40046761  0.90161211     0.46200
H862        H  0.12789085  0.55761612  0.93553898     0.41600
H863        H  0.09238704  0.37837585  0.98352631     0.45000
H864        H  0.24704912  0.60053909  0.94699472     0.36500
C865        C  0.84352569  0.45669819  0.95891299    -0.27800
C866        C  0.81011621  0.50078053  0.95941183     0.01800
C867        C  0.81931806  0.54055264  0.97179955     0.29900
C868        C  0.86276702  0.53662701  0.98295358    -0.19500
C869        C  0.89717794  0.49335699  0.98189954    -0.28900
C870        C  0.88641011  0.45266552  0.97005389     0.44000
C871        C  0.76669043  0.50400117  0.94663481     0.05200
O872        O  0.78534549  0.58241931  0.97336935    -0.57500
H873        H  0.87040737  0.56806957  0.99209469     0.18100
O874        O  0.91853236  0.40926240  0.96898919    -0.64200
H875        H  0.83700155  0.42561378  0.94954532     0.16500
C876        C  0.76162591  0.54734940  0.93540009     0.28800
C877        C  0.72411178  0.54613507  0.92215436    -0.25100
C878        C  0.69234356  0.50140153  0.91952418    -0.24400
C879        C  0.69671108  0.45869030  0.93098178     0.40200
C880        C  0.73338622  0.46028251  0.94439535    -0.26800
O881        O  0.79479487  0.58991803  0.93667830    -0.58700
H882        H  0.72153062  0.57940326  0.91345957     0.15900
O883        O  0.66519449  0.41514936  0.92925681    -0.60100
H884        H  0.73657036  0.42663579  0.95291896     0.14300
H885        H  0.90266280  0.38295080  0.97687559     0.46200
H886        H  0.82498535  0.58153662  0.92902655     0.41600
H887        H  0.63446469  0.42257928  0.93675687     0.45000
H888        H  0.80612219  0.61412769  0.97019714     0.36500
C889        C  0.61894869  0.03859600  0.28151917    -0.27800
C890        C  0.65742488  0.00034709  0.27812413     0.01800
C891        C  0.64801623  0.96274093  0.26520489     0.29900
C892        C  0.59983343  0.96197312  0.25652344    -0.19500
C893        C  0.55882733  0.99780298  0.26063714    -0.28900
C894        C  0.57057180  0.03820141  0.27278170     0.44000
C895        C  0.70640183  0.99868651  0.28852807     0.05200
O896        O  0.68603693  0.92664926  0.26082452    -0.57500
H897        H  0.59590181  0.93358920  0.24621948     0.18100
O898        O  0.53489111  0.07766589  0.27612103    -0.64200
H899        H  0.62587999  0.06840498  0.29127688     0.16500
C900        C  0.73870448  0.04347250  0.29049107     0.28800
C901        C  0.78295508  0.04138871  0.30125756    -0.25100
C902        C  0.79559890  0.99506368  0.31027537    -0.24400
C903        C  0.76409960  0.94975043  0.30783807     0.40200
C904        C  0.71986391  0.95196330  0.29712943    -0.26800
O905        O  0.72791317  0.08902868  0.28165593    -0.58700
H906        H  0.80695279  0.07648040  0.30275132     0.15900
O907        O  0.77427126  0.90389448  0.31656265    -0.60100
H908        H  0.69507180  0.91732052  0.29590489     0.14300
H909        H  0.52565263  0.07468555  0.28846543     0.46200
H910        H  0.71415282  0.11409038  0.29040114     0.41600
H911        H  0.79660129  0.88269930  0.30868004     0.45000
H912        H  0.70606286  0.94321751  0.25129682     0.36500
C913        C  0.41052282  0.98028587  0.29074825    -0.27800
C914        C  0.36171228  0.99072220  0.28308416     0.01800
C915        C  0.35949217  0.99952067  0.26529916     0.29900
C916        C  0.40567534  0.99902050  0.25552946    -0.19500
C917        C  0.45604561  0.99358057  0.26319275    -0.28900
C918        C  0.45746094  0.98135003  0.28111378     0.44000
C919        C  0.31310125  0.99159744  0.29367416     0.05200
O920        O  0.31224701  0.00893744  0.25730699    -0.57500
H921        H  0.40237211  0.00529567  0.24177708     0.18100
O922        O  0.50310334  0.96549083  0.28906468    -0.64200
H923        H  0.41233488  0.97130847  0.30437032     0.16500
C924        C  0.29632735  0.94649475  0.30265908     0.28800
C925        C  0.25047683  0.94833992  0.31270415    -0.25100
C926        C  0.22114305  0.99518183  0.31425403    -0.24400
C927        C  0.23763110  0.04013272  0.30497520     0.40200
C928        C  0.28321256  0.03803335  0.29479901    -0.26800
O929        O  0.32381380  0.90006669  0.30133329    -0.58700
H930        H  0.23856083  0.91317622  0.31959131     0.15900
O931        O  0.20998133  0.08653148  0.30587509    -0.60100
H932        H  0.29568631  0.07302489  0.28790939     0.14300
H933        H  0.50739276  0.98830751  0.29936077     0.46200
H934        H  0.34453795  0.89752930  0.31212949     0.41600
H935        H  0.18339651  0.08419199  0.29655336     0.45000
H936        H  0.29780754  0.97353577  0.25453754     0.36500
C937        C  0.45604909  0.20857966  0.20241358    -0.27800
C938        C  0.50363194  0.19411711  0.21031497     0.01800
C939        C  0.54856796  0.22576039  0.20765037     0.29900
C940        C  0.54562609  0.27033917  0.19700768    -0.19500
C941        C  0.49806524  0.28456676  0.18893421    -0.28900
C942        C  0.45295067  0.25320387  0.19185166     0.44000
C943        C  0.50560759  0.14578376  0.22116656     0.05200
O944        O  0.59555784  0.21350282  0.21538647    -0.57500
H945        H  0.58086336  0.29370352  0.19501302     0.18100
O946        O  0.40570967  0.26504846  0.18422390    -0.64200
H947        H  0.42119362  0.18445785  0.20414558     0.16500
C948        C  0.46989443  0.13864537  0.23476549     0.28800
C949        C  0.47077008  0.09222154  0.24446493    -0.25100
C950        C  0.50517586  0.04984824  0.24046276    -0.24400
C951        C  0.54338672  0.05920582  0.22739614     0.40200
C952        C  0.54270598  0.10611200  0.21779050    -0.26800
O953        O  0.43522039  0.17797209  0.23917019    -0.58700
H954        H  0.44469521  0.09086928  0.25543623     0.15900
O955        O  0.58060793  0.02182501  0.22347674    -0.60100
H956        H  0.57093923  0.11110423  0.20745216     0.14300
H957        H  0.40494983  0.24387600  0.17346799     0.46200
H958        H  0.40011328  0.16518147  0.23538952     0.41600
H959        H  0.61416861  0.03573088  0.22819341     0.45000
H960        H  0.59448011  0.23144461  0.22674532     0.36500
C961        C  0.49746438  0.85054689  0.23617817    -0.27800
C962        C  0.48960491  0.85488656  0.21844820     0.01800
C963        C  0.48291462  0.90520679  0.21121419     0.29900
C964        C  0.48657570  0.95041029  0.22157594    -0.19500
C965        C  0.49881661  0.94702919  0.23932280    -0.28900
C966        C  0.50149339  0.89549464  0.24659827     0.44000
C967        C  0.48885471  0.80657867  0.20764370     0.05200
O968        O  0.47307292  0.91073789  0.19394918    -0.57500
H969        H  0.47927229  0.98791842  0.21547044     0.18100
O970        O  0.50806785  0.88859299  0.26398426    -0.64200
H971        H  0.50067652  0.81189597  0.24202660     0.16500
C972        C  0.53266468  0.77251712  0.20713844     0.28800
C973        C  0.53214979  0.72808513  0.19638224    -0.25100
C974        C  0.48788592  0.71619748  0.18624979    -0.24400
C975        C  0.44358200  0.74984442  0.18703851     0.40200
C976        C  0.44437709  0.79457030  0.19766962    -0.26800
O977        O  0.57709596  0.78372926  0.21652230    -0.58700
H978        H  0.56666926  0.70298045  0.19592264     0.15900
O979        O  0.39973369  0.74023892  0.17719867    -0.60100
H980        H  0.41022487  0.82019025  0.19805337     0.14300
H981        H  0.54262372  0.87093466  0.26542675     0.46200
H982        H  0.57602381  0.75930943  0.22649329     0.41600
H983        H  0.40549278  0.76023493  0.16639314     0.45000
H984        H  0.50829901  0.91253835  0.18844323     0.36500
loop_ 
_geom_bond_atom_site_label_1 
_geom_bond_atom_site_label_2 
_geom_bond_distance 
_geom_bond_site_symmetry_2 
_ccdc_geom_bond_type 
C1          C893   1.559       .  S
C1          C917   1.564       .  S
C1          C950   1.570   1_565  S
C1          C965   1.564       .  S
C2            C3   1.412   1_556  A
C2            C7   1.402       .  A
C2          C869   1.484       .  S
C3            C4   1.405       .  A
C3          C821   1.481       .  S
C4            C5   1.405   1_655  A
C4            H9   1.085       .  S
C5            C6   1.413   1_554  A
C5          C797   1.485       .  S
C6            C7   1.401   1_455  A
C6          C854   1.480       .  S
C7            H8   1.085       .  S
C10         C701   1.567       .  S
C10         C734   1.559       .  S
C10         C758   1.572   1_565  S
C10         C773   1.560       .  S
C11         C605   1.566   1_655  S
C11         C638   1.565       .  S
C11         C653   1.563   1_655  S
C11         C677   1.561       .  S
C12          C13   1.413   1_554  A
C12          C17   1.403       .  A
C12         C533   1.480       .  S
C13          C14   1.400       .  A
C13         C581   1.481       .  S
C14          C15   1.401   1_565  A
C14          H19   1.085       .  S
C15          C16   1.409   1_556  A
C15         C557   1.474       .  S
C16          C17   1.399   1_545  A
C16         C509   1.480       .  S
C17          H18   1.085       .  S
N20          N21   1.321       .  A
N20          N26   1.315       .  A
N20         Mn49   2.205       .  S
N21          C28   1.355       .  A
N22          N24   1.316       .  A
N22          N23   1.320       .  A
N22         Mn38   2.199       .  S
N23          C29   1.352       .  A
N24          N25   1.320       .  A
N24         Mn49   2.205       .  S
N25          C29   1.353       .  A
N26          N27   1.319       .  A
N26         Mn38   2.196       .  S
N27          C28   1.352       .  A
C28         C590   1.480       .  S
C29         C782   1.477       .  S
N30          N36   1.316       .  A
N30          N31   1.320       .  A
N30         Mn60   2.205       .  S
N31          C39   1.354       .  A
N32          N33   1.320       .  A
N32          N34   1.315       .  A
N32         Mn38   2.194       .  S
N33          C40   1.352       .  A
N34          N35   1.321       .  A
N34         Mn60   2.209       .  S
N35          C40   1.355       .  A
N36          N37   1.320       .  A
N36         Mn38   2.200       .  S
N37          C39   1.353       .  A
Mn38        Cl62   2.548       .  S
C39         C686   1.483       .  S
C40         C878   1.481       .  S
N41          N42   1.320       .  A
N41          N47   1.317       .  A
N41         Mn49   2.209       .  S
N42          C50   1.354       .  A
N43          N45   1.315       .  A
N43          N44   1.320       .  A
N43         Mn61   2.203       .  S
N44          C51   1.353       .  A
N45          N46   1.321       .  A
N45         Mn49   2.204       .  S
N46          C51   1.354       .  A
N47          N48   1.321       .  A
N47         Mn61   2.206       .  S
N48          C50   1.354       .  A
Mn49        Cl62   2.546       .  S
C50         C662   1.486       .  S
C51         C845   1.481       .  S
N52          N53   1.320       .  A
N52          N58   1.315       .  A
N52         Mn60   2.198       .  S
N53          C63   1.353       .  A
N54          N55   1.324       .  A
N54          N56   1.317       .  A
N54         Mn61   2.218       .  S
N55          C64   1.356       .  A
N56          N57   1.321       .  A
N56         Mn60   2.211       .  S
N57          C64   1.353       .  A
N58          N59   1.319       .  A
N58         Mn61   2.195       .  S
N59          C63   1.352       .  A
Mn60        Cl62   2.545       .  S
Mn61        Cl62   2.551       .  S
C63         C566   1.474       .  S
C64         C749   1.489       .  S
N65          N66   1.320       .  A
N65          N71   1.316       .  A
N65         Mn94   2.200       .  S
N66          C73   1.353       .  A
N67          N69   1.314       .  A
N67          N68   1.320       .  A
N67         Mn83   2.195       .  S
N68          C74   1.353       .  A
N69          N70   1.318       .  A
N69         Mn94   2.190       .  S
N70          C74   1.352       .  A
N71          N72   1.321       .  A
N71         Mn83   2.209       .  S
N72          C73   1.355       .  A
C73         C974   1.482       .  S
C74         C542   1.478       .  S
N75          N81   1.315       .  A
N75          N76   1.319       .  A
N75        Mn105   2.199       .  S
N76          C84   1.353       .  A
N77          N78   1.320       .  A
N77          N79   1.316       .  A
N77         Mn83   2.203       .  S
N78          C85   1.353       .  A
N79          N80   1.321       .  A
N79        Mn105   2.204       .  S
N80          C85   1.354       .  A
N81          N82   1.321       .  A
N81         Mn83   2.198       .  S
N82          C84   1.353       .  A
Mn83       Cl107   2.546       .  S
C84         C830   1.479       .  S
C85         C494   1.481       .  S
N86          N87   1.319       .  A
N86          N92   1.315       .  A
N86         Mn94   2.198       .  S
N87          C95   1.352       .  A
N88          N90   1.317       .  A
N88          N89   1.320       .  A
N88        Mn106   2.209       .  S
N89          C96   1.354       .  A
N90          N91   1.320       .  A
N90         Mn94   2.196       .  S
N91          C96   1.351       .  A
N92          N93   1.323       .  A
N92        Mn106   2.211       .  S
N93          C95   1.356       .  A
Mn94       Cl107   2.544       .  S
C95         C806   1.482       .  S
C96         C461   1.478       .  S
N97          N98   1.321       .  A
N97         N103   1.317       .  A
N97        Mn105   2.202       .  S
N98         C108   1.353       .  A
N99         N100   1.319       .  A
N99         N101   1.315       .  A
N99        Mn106   2.195       .  S
N100        C109   1.352       .  A
N101        N102   1.321       .  A
N101       Mn105   2.199       .  S
N102        C109   1.353       .  A
N103        N104   1.322       .  A
N103       Mn106   2.221       .  S
N104        C108   1.356       .  A
Mn105      Cl107   2.547       .  S
Mn106      Cl107   2.547       .  S
C108        C941   1.489       .  S
C109        C518   1.477       .  S
N110        N111   1.317       .  A
N110        N116   1.316   1_545  A
N110       Mn139   2.199       .  S
N111        C118   1.351   1_545  A
N112        N114   1.316   1_565  A
N112        N113   1.322       .  A
N112       Mn128   2.208       .  S
N113        C119   1.354   1_565  A
N114        N115   1.321       .  A
N114       Mn139   2.209       .  S
N115        C119   1.355       .  A
N116        N117   1.322       .  A
N116       Mn128   2.203       .  S
N117        C118   1.354       .  A
C118        C725   1.474       .  S
C119        C374   1.486       .  S
N120        N126   1.314   1_655  A
N120        N121   1.321       .  A
N120       Mn150   2.203       .  S
N121        C129   1.355       .  A
N122        N123   1.322       .  A
N122        N124   1.316   1_455  A
N122       Mn128   2.215       .  S
N123        C130   1.357   1_455  A
N124        N125   1.321       .  A
N124       Mn150   2.206       .  S
N125        C130   1.354       .  A
N126        N127   1.319       .  A
N126       Mn128   2.197       .  S
N127        C129   1.353   1_455  A
Mn128      Cl152   2.554   1_465  S
C129        C446   1.482       .  S
C130        C629   1.489       .  S
N131        N132   1.322       .  A
N131        N137   1.315   1_455  A
N131       Mn139   2.205       .  S
N132        C140   1.355   1_455  A
N133        N135   1.317   1_655  A
N133        N134   1.322       .  A
N133       Mn151   2.210       .  S
N134        C141   1.356   1_655  A
N135        N136   1.321       .  A
N135       Mn139   2.214       .  S
N136        C141   1.354       .  A
N137        N138   1.320       .  A
N137       Mn151   2.202       .  S
N138        C140   1.352       .  A
Mn139      Cl152   2.540   1_455  S
C140        C422   1.478       .  S
C141        C614   1.490       .  S
N142        N143   1.320       .  A
N142        N148   1.317   1_565  A
N142       Mn150   2.200       .  S
N143        C153   1.350       .  A
N144        N145   1.318       .  A
N144        N146   1.316   1_545  A
N144       Mn151   2.192       .  S
N145        C154   1.350       .  A
N146        N147   1.321       .  A
N146       Mn150   2.205       .  S
N147        C154   1.354   1_565  A
N148        N149   1.322       .  A
N148       Mn151   2.209       .  S
N149        C153   1.353   1_545  A
Mn150      Cl152   2.541   1_565  S
Mn151      Cl152   2.554       .  S
C153        C710   1.468       .  S
C154        C389   1.472       .  S
N155        N156   1.321       .  A
N155        N161   1.316   1_565  A
N155       Mn184   2.212       .  S
N156        C163   1.355       .  A
N157        N159   1.314   1_545  A
N157        N158   1.319       .  A
N157       Mn173   2.199       .  S
N158        C164   1.353       .  A
N159        N160   1.320       .  A
N159       Mn184   2.196       .  S
N160        C164   1.354   1_565  A
N161        N162   1.321       .  A
N161       Mn173   2.204       .  S
N162        C163   1.354   1_545  A
C163        C926   1.486       .  S
C164        C326   1.480       .  S
N165        N171   1.315   1_655  A
N165        N166   1.320       .  A
N165       Mn195   2.194       .  S
N166        C174   1.353       .  A
N167        N168   1.323       .  A
N167        N169   1.316   1_455  A
N167       Mn173   2.207       .  S
N168        C175   1.355       .  A
N169        N170   1.316       .  A
N169       Mn195   2.191       .  S
N170        C175   1.350   1_655  A
N171        N172   1.319       .  A
N171       Mn173   2.197       .  S
N172        C174   1.352   1_455  A
Mn173      Cl197   2.547       .  S
C174        C269   1.474       .  S
C175        C245   1.478       .  S
N176        N177   1.322       .  A
N176        N182   1.315   1_455  A
N176       Mn184   2.206       .  S
N177        C185   1.355   1_455  A
N178        N180   1.316   1_655  A
N178        N179   1.321       .  A
N178       Mn196   2.210       .  S
N179        C186   1.355   1_655  A
N180        N181   1.319       .  A
N180       Mn184   2.199       .  S
N181        C186   1.352       .  A
N182        N183   1.319       .  A
N182       Mn196   2.196       .  S
N183        C185   1.352       .  A
Mn184      Cl197   2.544   1_565  S
C185        C293   1.483       .  S
C186        C221   1.482       .  S
N187        N188   1.320       .  A
N187        N193   1.315   1_545  A
N187       Mn195   2.197       .  S
N188        C198   1.353   1_545  A
N189        N190   1.323       .  A
N189        N191   1.314   1_565  A
N189       Mn196   2.213       .  S
N190        C199   1.357   1_565  A
N191        N192   1.320       .  A
N191       Mn195   2.199       .  S
N192        C199   1.353       .  A
N193        N194   1.320       .  A
N193       Mn196   2.203       .  S
N194        C198   1.354       .  A
Mn195      Cl197   2.542   1_655  S
Mn196      Cl197   2.547   1_665  S
C198        C902   1.482       .  S
C199        C341   1.488       .  S
C200        C201   1.418       .  A
C200        C205   1.407       .  A
C200        C437   1.488       .  S
C201        C202   1.405       .  A
C201        C302   1.490       .  S
C202        C203   1.404       .  A
C202        H207   1.085   1_655  S
C203        C204   1.411       .  A
C203        C278   1.483       .  S
C204        C205   1.401       .  A
C204        C413   1.481       .  S
C205        H206   1.085       .  S
C208        C209   1.411       .  A
C208        C213   1.402       .  A
C208        C350   1.488       .  S
C209        C210   1.404       .  A
C209        C398   1.475       .  S
C210        C211   1.406       .  A
C210        H215   1.085       .  S
C211        C212   1.417       .  A
C211        C365   1.493       .  S
C212        C213   1.406       .  A
C212        C317   1.483       .  S
C213        H214   1.085       .  S
C216        C230   1.561   1_655  S
C216        C254   1.561       .  S
C216        C470   1.566   1_655  S
C216        C485   1.567       .  S
C217        C218   1.403       .  A
C217        C222   1.399       .  A
C217        H227   1.083       .  S
C218        C219   1.411   1_455  A
C218        C223   1.487       .  S
C219        C220   1.400       .  A
C219        O224   1.372       .  S
C220        C221   1.404   1_655  A
C220        H225   1.083       .  S
C221        C222   1.412       .  A
C222        O226   1.372       .  S
C223        C228   1.405       .  A
C223        C232   1.401   1_455  A
O224        H240   0.993       .  S
O226        H237   0.992       .  S
C228        C229   1.398       .  A
C228        O233   1.373       .  S
C229        C230   1.416       .  A
C229        H234   1.078       .  S
C230        C231   1.423   1_455  A
C231        C232   1.400       .  A
C231        O235   1.372       .  S
C232        H236   1.083       .  S
O233        H238   0.992       .  S
O235        H239   0.992       .  S
C241        C242   1.401   1_655  A
C241        C246   1.393       .  A
C241        H251   1.083       .  S
C242        C243   1.411       .  A
C242        C247   1.485       .  S
C243        C244   1.403       .  A
C243        O248   1.371       .  S
C244        C245   1.404       .  A
C244        H249   1.084       .  S
C245        C246   1.411   1_455  A
C246        O250   1.372       .  S
C247        C252   1.406   1_455  A
C247        C256   1.401       .  A
O248        H264   0.992       .  S
O250        H261   0.992       .  S
C252        C253   1.395       .  A
C252        O257   1.373       .  S
C253        C254   1.414       .  A
C253        H258   1.077       .  S
C254        C255   1.425   1_655  A
C255        C256   1.402       .  A
C255        O259   1.372       .  S
C256        H260   1.083       .  S
O257        H262   0.992       .  S
O259        H263   0.992       .  S
C265        C266   1.402   1_455  A
C265        C270   1.399       .  A
C265        H275   1.084       .  S
C266        C267   1.408       .  A
C266        C271   1.479       .  S
C267        C268   1.399       .  A
C267        O272   1.373       .  S
C268        C269   1.403       .  A
C268        H273   1.084       .  S
C269        C270   1.409   1_655  A
C270        O274   1.372       .  S
C271        C276   1.408       .  A
C271        C280   1.402   1_655  A
O272        H288   0.992       .  S
O274        H285   0.992       .  S
C276        C277   1.399       .  A
C276        O281   1.371       .  S
C277        C278   1.403       .  A
C277        H282   1.080       .  S
C278        C279   1.410   1_655  A
C279        C280   1.397       .  A
C279        O283   1.372       .  S
C280        H284   1.084       .  S
O281        H286   0.992       .  S
O283        H287   0.992       .  S
C289        C290   1.404       .  A
C289        C294   1.399       .  A
C289        H299   1.083       .  S
C290        C291   1.411   1_655  A
C290        C295   1.489       .  S
C291        C292   1.402       .  A
C291        O296   1.371       .  S
C292        C293   1.405   1_455  A
C292        H297   1.083       .  S
C293        C294   1.412       .  A
C294        O298   1.372       .  S
C295        C300   1.412       .  A
C295        C304   1.404   1_655  A
O296        H312   0.993       .  S
O298        H309   0.992       .  S
C300        C301   1.404       .  A
C300        O305   1.372       .  S
C301        C302   1.404       .  A
C301        H306   1.083       .  S
C302        C303   1.410   1_655  A
C303        C304   1.398       .  A
C303        O307   1.372       .  S
C304        H308   1.083       .  S
O305        H310   0.993       .  S
O307        H311   0.992       .  S
C313        C314   1.406       .  A
C313        C318   1.401       .  A
C313        H323   1.083       .  S
C314        C315   1.409   1_545  A
C314        C319   1.484       .  S
C315        C316   1.398       .  A
C315        O320   1.373       .  S
C316        C317   1.403   1_565  A
C316        H321   1.084       .  S
C317        C318   1.408       .  A
C318        O322   1.371       .  S
C319        C324   1.410   1_545  A
C319        C328   1.403       .  A
O320        H336   0.992       .  S
O322        H333   0.992       .  S
C324        C325   1.399       .  A
C324        O329   1.371       .  S
C325        C326   1.405   1_565  A
C325        H330   1.084       .  S
C326        C327   1.411       .  A
C327        C328   1.399       .  A
C327        O331   1.372       .  S
C328        H332   1.084       .  S
O329        H334   0.992       .  S
O331        H335   0.992       .  S
C337        C338   1.406       .  A
C337        C342   1.402       .  A
C337        H347   1.083       .  S
C338        C339   1.413   1_545  A
C338        C343   1.497       .  S
C339        C340   1.403       .  A
C339        O344   1.371       .  S
C340        C341   1.404   1_565  A
C340        H345   1.083       .  S
C341        C342   1.412       .  A
C342        O346   1.372       .  S
C343        C348   1.415       .  A
C343        C352   1.407   1_545  A
O344        H360   0.991       .  S
O346        H357   0.992       .  S
C348        C349   1.404       .  A
C348        O353   1.371       .  S
C349        C350   1.403       .  A
C349        H354   1.082       .  S
C350        C351   1.407   1_545  A
C351        C352   1.400       .  A
C351        O355   1.371       .  S
C352        H356   1.083       .  S
O353        H358   0.992       .  S
O355        H359   0.992       .  S
C361        C362   1.406   1_565  A
C361        C366   1.404       .  A
C361        H371   1.083       .  S
C362        C363   1.410       .  A
C362        C367   1.490       .  S
C363        C364   1.401       .  A
C363        O368   1.373       .  S
C364        C365   1.404       .  A
C364        H369   1.084       .  S
C365        C366   1.411   1_545  A
C366        O370   1.371       .  S
C367        C372   1.410       .  A
C367        C376   1.404   1_545  A
O368        H384   0.992       .  S
O370        H381   0.992       .  S
C372        C373   1.402       .  A
C372        O377   1.371       .  S
C373        C374   1.405       .  A
C373        H378   1.084       .  S
C374        C375   1.412   1_545  A
C375        C376   1.403       .  A
C375        O379   1.371       .  S
C376        H380   1.084       .  S
O377        H382   0.992       .  S
O379        H383   0.992       .  S
C385        C386   1.406   1_565  A
C385        C390   1.400       .  A
C385        H395   1.084       .  S
C386        C387   1.411       .  A
C386        C391   1.485       .  S
C387        C388   1.400       .  A
C387        O392   1.373       .  S
C388        C389   1.401       .  A
C388        H393   1.084       .  S
C389        C390   1.406   1_545  A
C390        O394   1.371       .  S
C391        C396   1.412       .  A
C391        C400   1.405   1_545  A
O392        H408   0.992       .  S
O394        H405   0.992       .  S
C396        C397   1.399       .  A
C396        O401   1.371       .  S
C397        C398   1.401       .  A
C397        H402   1.083       .  S
C398        C399   1.405   1_545  A
C399        C400   1.398       .  A
C399        O403   1.371       .  S
C400        H404   1.084       .  S
O401        H406   0.992       .  S
O403        H407   0.992       .  S
C409        C410   1.408       .  A
C409        C414   1.401       .  A
C409        H419   1.083       .  S
C410        C411   1.414   1_655  A
C410        C415   1.496       .  S
C411        C412   1.402       .  A
C411        O416   1.371       .  S
C412        C413   1.400   1_455  A
C412        H417   1.084       .  S
C413        C414   1.406       .  A
C414        O418   1.372       .  S
C415        C420   1.414       .  A
C415        C424   1.408   1_655  A
O416        H432   0.992       .  S
O418        H429   0.992       .  S
C420        C421   1.402       .  A
C420        O425   1.372       .  S
C421        C422   1.402       .  A
C421        H426   1.084       .  S
C422        C423   1.407   1_655  A
C423        C424   1.402       .  A
C423        O427   1.372       .  S
C424        H428   1.083       .  S
O425        H430   0.992       .  S
O427        H431   0.992       .  S
C433        C434   1.405   1_455  A
C433        C438   1.400       .  A
C433        H443   1.083       .  S
C434        C435   1.409       .  A
C434        C439   1.486       .  S
C435        C436   1.397       .  A
C435        O440   1.372       .  S
C436        C437   1.404       .  A
C436        H441   1.084       .  S
C437        C438   1.411   1_655  A
C438        O442   1.371       .  S
C439        C444   1.409   1_655  A
C439        C448   1.405       .  A
O440        H456   0.992       .  S
O442        H453   0.992       .  S
C444        C445   1.400       .  A
C444        O449   1.372       .  S
C445        C446   1.405   1_455  A
C445        H450   1.083       .  S
C446        C447   1.410       .  A
C447        C448   1.401       .  A
C447        O451   1.371       .  S
C448        H452   1.084       .  S
O449        H454   0.992       .  S
O451        H455   0.991       .  S
C457        C458   1.404       .  A
C457        C462   1.397       .  A
C457        H467   1.084       .  S
C458        C459   1.410       .  A
C458        C463   1.485       .  S
C459        C460   1.403       .  A
C459        O464   1.372       .  S
C460        C461   1.404       .  A
C460        H465   1.084       .  S
C461        C462   1.409       .  A
C462        O466   1.371       .  S
C463        C468   1.405       .  A
C463        C472   1.398       .  A
O464        H480   0.992       .  S
O466        H477   0.991       .  S
C468        C469   1.400       .  A
C468        O473   1.371       .  S
C469        C470   1.417       .  A
C469        H474   1.082       .  S
C470        C471   1.428       .  A
C471        C472   1.396       .  A
C471        O475   1.370       .  S
C472        H476   1.084       .  S
O473        H478   0.992       .  S
O475        H479   0.992       .  S
C481        C482   1.399       .  A
C481        C486   1.399       .  A
C481        H491   1.084       .  S
C482        C483   1.405       .  A
C482        C487   1.487       .  S
C483        C484   1.401       .  A
C483        O488   1.373       .  S
C484        C485   1.416       .  A
C484        H489   1.082       .  S
C485        C486   1.428       .  A
C486        O490   1.370       .  S
C487        C492   1.411       .  A
C487        C496   1.403       .  A
O488        H504   0.991       .  S
O490        H501   0.991       .  S
C492        C493   1.402       .  A
C492        O497   1.371       .  S
C493        C494   1.405       .  A
C493        H498   1.084       .  S
C494        C495   1.411       .  A
C495        C496   1.398       .  A
C495        O499   1.372       .  S
C496        H500   1.084       .  S
O497        H502   0.992       .  S
O499        H503   0.991       .  S
C505        C506   1.405       .  A
C505        C510   1.401       .  A
C505        H515   1.083       .  S
C506        C507   1.409       .  A
C506        C511   1.482       .  S
C507        C508   1.396       .  A
C507        O512   1.372       .  S
C508        C509   1.402       .  A
C508        H513   1.084       .  S
C509        C510   1.408       .  A
C510        O514   1.371       .  S
C511        C516   1.409       .  A
C511        C520   1.403       .  A
O512        H528   0.992       .  S
O514        H525   0.992       .  S
C516        C517   1.401       .  A
C516        O521   1.372       .  S
C517        C518   1.404       .  A
C517        H522   1.083       .  S
C518        C519   1.409       .  A
C519        C520   1.397       .  A
C519        O523   1.372       .  S
C520        H524   1.084       .  S
O521        H526   0.992       .  S
O523        H527   0.992       .  S
C529        C530   1.403       .  A
C529        C534   1.394       .  A
C529        H539   1.083       .  S
C530        C531   1.412       .  A
C530        C535   1.483       .  S
C531        C532   1.399       .  A
C531        O536   1.371       .  S
C532        C533   1.402       .  A
C532        H537   1.083       .  S
C533        C534   1.410       .  A
C534        O538   1.372       .  S
C535        C540   1.410       .  A
C535        C544   1.403       .  A
O536        H552   0.992       .  S
O538        H549   0.992       .  S
C540        C541   1.398       .  A
C540        O545   1.372       .  S
C541        C542   1.404       .  A
C541        H546   1.084       .  S
C542        C543   1.411       .  A
C543        C544   1.396       .  A
C543        O547   1.372       .  S
C544        H548   1.083       .  S
O545        H550   0.992       .  S
O547        H551   0.991       .  S
C553        C554   1.404       .  A
C553        C558   1.399       .  A
C553        H563   1.083       .  S
C554        C555   1.407       .  A
C554        C559   1.475       .  S
C555        C556   1.394       .  A
C555        O560   1.372       .  S
C556        C557   1.402       .  A
C556        H561   1.084       .  S
C557        C558   1.406       .  A
C558        O562   1.371       .  S
C559        C564   1.407       .  A
C559        C568   1.401       .  A
O560        H576   0.991       .  S
O562        H573   0.992       .  S
C564        C565   1.398       .  A
C564        O569   1.372       .  S
C565        C566   1.403       .  A
C565        H570   1.084       .  S
C566        C567   1.408       .  A
C567        C568   1.398       .  A
C567        O571   1.369       .  S
C568        H572   1.084       .  S
O569        H574   0.991       .  S
O571        H575   0.992       .  S
C577        C578   1.406       .  A
C577        C582   1.401       .  A
C577        H587   1.083       .  S
C578        C579   1.410       .  A
C578        C583   1.486       .  S
C579        C580   1.398       .  A
C579        O584   1.372       .  S
C580        C581   1.403       .  A
C580        H585   1.084       .  S
C581        C582   1.407       .  A
C582        O586   1.371       .  S
C583        C588   1.409       .  A
C583        C592   1.405       .  A
O584        H600   0.992       .  S
O586        H597   0.992       .  S
C588        C589   1.400       .  A
C588        O593   1.372       .  S
C589        C590   1.405       .  A
C589        H594   1.083       .  S
C590        C591   1.409       .  A
C591        C592   1.400       .  A
C591        O595   1.371       .  S
C592        H596   1.083       .  S
O593        H598   0.992       .  S
O595        H599   0.992       .  S
C601        C602   1.402       .  A
C601        C606   1.407       .  A
C601        H611   1.084       .  S
C602        C603   1.400   1_455  A
C602        C607   1.486       .  S
C603        C604   1.398       .  A
C603        O608   1.373       .  S
C604        C605   1.417   1_655  A
C604        H609   1.080       .  S
C605        C606   1.425       .  A
C606        O610   1.371       .  S
C607        C612   1.408   1_455  A
C607        C616   1.402       .  A
O608        H624   0.993       .  S
O610        H621   0.991       .  S
C612        C613   1.404       .  A
C612        O617   1.372       .  S
C613        C614   1.407   1_655  A
C613        H618   1.083       .  S
C614        C615   1.414       .  A
C615        C616   1.403       .  A
C615        O619   1.371       .  S
C616        H620   1.084       .  S
O617        H622   0.991       .  S
O619        H623   0.992       .  S
C625        C626   1.405       .  A
C625        C630   1.404       .  A
C625        H635   1.084       .  S
C626        C627   1.410   1_655  A
C626        C631   1.491       .  S
C627        C628   1.403       .  A
C627        O632   1.373       .  S
C628        C629   1.405   1_455  A
C628        H633   1.083       .  S
C629        C630   1.413       .  A
C630        O634   1.372       .  S
C631        C636   1.404   1_655  A
C631        C640   1.403       .  A
O632        H648   0.991       .  S
O634        H645   0.992       .  S
C636        C637   1.402       .  A
C636        O641   1.374       .  S
C637        C638   1.418   1_455  A
C637        H642   1.080       .  S
C638        C639   1.421       .  A
C639        C640   1.404       .  A
C639        O643   1.371       .  S
C640        H644   1.084       .  S
O641        H646   0.992       .  S
O643        H647   0.991       .  S
C649        C650   1.398       .  A
C649        C654   1.403       .  A
C649        H659   1.084       .  S
C650        C651   1.400       .  A
C650        C655   1.478       .  S
C651        C652   1.398       .  A
C651        O656   1.372       .  S
C652        C653   1.417       .  A
C652        H657   1.081       .  S
C653        C654   1.427       .  A
C654        O658   1.372       .  S
C655        C660   1.406       .  A
C655        C664   1.400       .  A
O656        H672   0.992       .  S
O658        H669   0.992       .  S
C660        C661   1.401       .  A
C660        O665   1.372       .  S
C661        C662   1.407       .  A
C661        H666   1.083       .  S
C662        C663   1.414       .  A
C663        C664   1.401       .  A
C663        O667   1.371       .  S
C664        H668   1.084       .  S
O665        H670   0.993       .  S
O667        H671   0.992       .  S
C673        C674   1.400       .  A
C673        C678   1.402       .  A
C673        H683   1.084       .  S
C674        C675   1.403       .  A
C674        C679   1.483       .  S
C675        C676   1.398       .  A
C675        O680   1.373       .  S
C676        C677   1.417       .  A
C676        H681   1.080       .  S
C677        C678   1.422       .  A
C678        O682   1.371       .  S
C679        C684   1.409       .  A
C679        C688   1.403       .  A
O680        H696   0.992       .  S
O682        H693   0.992       .  S
C684        C685   1.399       .  A
C684        O689   1.372       .  S
C685        C686   1.405       .  A
C685        H690   1.083       .  S
C686        C687   1.412       .  A
C687        C688   1.400       .  A
C687        O691   1.371       .  S
C688        H692   1.084       .  S
O689        H694   0.992       .  S
O691        H695   0.992       .  S
C697        C698   1.399       .  A
C697        C702   1.403       .  A
C697        H707   1.084       .  S
C698        C699   1.404   1_565  A
C698        C703   1.484       .  S
C699        C700   1.397       .  A
C699        O704   1.372       .  S
C700        C701   1.417   1_545  A
C700        H705   1.083       .  S
C701        C702   1.429       .  A
C702        O706   1.372       .  S
C703        C708   1.412       .  A
C703        C712   1.404   1_565  A
O704        H720   0.992       .  S
O706        H717   0.992       .  S
C708        C709   1.401       .  A
C708        O713   1.372       .  S
C709        C710   1.400       .  A
C709        H714   1.084       .  S
C710        C711   1.406   1_565  A
C711        C712   1.399       .  A
C711        O715   1.372       .  S
C712        H716   1.083       .  S
O713        H718   0.992   1_565  S
O715        H719   0.992   1_545  S
C721        C722   1.406       .  A
C721        C726   1.402       .  A
C721        H731   1.084       .  S
C722        C723   1.407   1_565  A
C722        C727   1.481       .  S
C723        C724   1.397       .  A
C723        O728   1.373       .  S
C724        C725   1.403   1_545  A
C724        H729   1.084       .  S
C725        C726   1.408       .  A
C726        O730   1.372       .  S
C727        C732   1.405   1_565  A
C727        C736   1.398       .  A
O728        H744   0.993       .  S
O730        H741   0.993       .  S
C732        C733   1.396       .  A
C732        O737   1.371       .  S
C733        C734   1.415   1_545  A
C733        H738   1.078       .  S
C734        C735   1.424       .  A
C735        C736   1.401       .  A
C735        O739   1.372       .  S
C736        H740   1.084       .  S
O737        H742   0.992       .  S
O739        H743   0.987       .  S
C745        C746   1.405       .  A
C745        C750   1.402       .  A
C745        H755   1.083       .  S
C746        C747   1.413       .  A
C746        C751   1.496       .  S
C747        C748   1.404       .  A
C747        O752   1.372       .  S
C748        C749   1.404       .  A
C748        H753   1.083       .  S
C749        C750   1.413       .  A
C750        O754   1.371       .  S
C751        C756   1.408       .  A
C751        C760   1.402       .  A
O752        H768   0.992       .  S
O754        H765   0.992       .  S
C756        C757   1.403       .  A
C756        O761   1.372       .  S
C757        C758   1.418       .  A
C757        H762   1.079       .  S
C758        C759   1.423       .  A
C759        C760   1.402       .  A
C759        O763   1.371       .  S
C760        H764   1.083       .  S
O761        H766   0.992       .  S
O763        H767   0.993       .  S
C769        C770   1.398       .  A
C769        C774   1.401       .  A
C769        H779   1.083       .  S
C770        C771   1.406       .  A
C770        C775   1.486       .  S
C771        C772   1.399       .  A
C771        O776   1.371       .  S
C772        C773   1.415       .  A
C772        H777   1.083       .  S
C773        C774   1.428       .  A
C774        O778   1.374       .  S
C775        C780   1.411       .  A
C775        C784   1.405       .  A
O776        H792   0.992       .  S
O778        H789   0.991       .  S
C780        C781   1.399       .  A
C780        O785   1.372       .  S
C781        C782   1.404       .  A
C781        H786   1.084       .  S
C782        C783   1.409       .  A
C783        C784   1.400       .  A
C783        O787   1.372       .  S
C784        H788   1.083       .  S
O785        H790   0.992       .  S
O787        H791   0.992       .  S
C793        C794   1.406       .  A
C793        C798   1.402       .  A
C793        H803   1.084       .  S
C794        C795   1.409       .  A
C794        C799   1.486       .  S
C795        C796   1.401       .  A
C795        O800   1.372       .  S
C796        C797   1.403       .  A
C796        H801   1.084       .  S
C797        C798   1.408       .  A
C798        O802   1.371       .  S
C799        C804   1.410       .  A
C799        C808   1.402       .  A
O800        H816   0.992       .  S
O802        H813   0.992       .  S
C804        C805   1.404       .  A
C804        O809   1.371       .  S
C805        C806   1.405       .  A
C805        H810   1.084       .  S
C806        C807   1.411       .  A
C807        C808   1.399       .  A
C807        O811   1.372       .  S
C808        H812   1.084       .  S
O809        H814   0.992       .  S
O811        H815   0.991       .  S
C817        C818   1.405       .  A
C817        C822   1.399       .  A
C817        H827   1.084       .  S
C818        C819   1.409       .  A
C818        C823   1.484       .  S
C819        C820   1.400       .  A
C819        O824   1.372       .  S
C820        C821   1.403       .  A
C820        H825   1.084       .  S
C821        C822   1.407       .  A
C822        O826   1.371       .  S
C823        C828   1.409       .  A
C823        C832   1.403       .  A
O824        H840   0.992       .  S
O826        H837   0.992       .  S
C828        C829   1.401       .  A
C828        O833   1.371       .  S
C829        C830   1.405       .  A
C829        H834   1.084       .  S
C830        C831   1.410       .  A
C831        C832   1.398       .  A
C831        O835   1.372       .  S
C832        H836   1.084       .  S
O833        H838   0.992       .  S
O835        H839   0.991       .  S
C841        C842   1.404       .  A
C841        C846   1.400       .  A
C841        H851   1.084       .  S
C842        C843   1.410       .  A
C842        C847   1.487       .  S
C843        C844   1.402       .  A
C843        O848   1.374       .  S
C844        C845   1.404       .  A
C844        H849   1.084       .  S
C845        C846   1.411       .  A
C846        O850   1.372       .  S
C847        C852   1.411       .  A
C847        C856   1.407       .  A
O848        H864   0.992       .  S
O850        H861   0.992       .  S
C852        C853   1.396       .  A
C852        O857   1.371       .  S
C853        C854   1.401       .  A
C853        H858   1.084       .  S
C854        C855   1.407       .  A
C855        C856   1.403       .  A
C855        O859   1.371       .  S
C856        H860   1.083       .  S
O857        H862   0.992       .  S
O859        H863   0.991       .  S
C865        C866   1.403       .  A
C865        C870   1.395       .  A
C865        H875   1.084       .  S
C866        C867   1.411       .  A
C866        C871   1.486       .  S
C867        C868   1.406       .  A
C867        O872   1.373       .  S
C868        C869   1.404       .  A
C868        H873   1.083       .  S
C869        C870   1.407       .  A
C870        O874   1.372       .  S
C871        C876   1.410       .  A
C871        C880   1.403       .  A
O872        H888   0.992       .  S
O874        H885   0.992       .  S
C876        C877   1.402       .  A
C876        O881   1.371       .  S
C877        C878   1.405       .  A
C877        H882   1.083       .  S
C878        C879   1.407       .  A
C879        C880   1.398       .  A
C879        O883   1.369       .  S
C880        H884   1.084       .  S
O881        H886   0.992       .  S
O883        H887   0.991       .  S
C889        C890   1.401       .  A
C889        C894   1.403       .  A
C889        H899   1.083       .  S
C890        C891   1.403   1_545  A
C890        C895   1.483   1_545  S
C891        C892   1.397       .  A
C891        O896   1.372       .  S
C892        C893   1.417       .  A
C892        H897   1.079       .  S
C893        C894   1.422   1_565  A
C894        O898   1.374       .  S
C895        C900   1.408   1_565  A
C895        C904   1.403       .  A
O896        H912   0.991       .  S
O898        H909   0.990       .  S
C900        C901   1.401       .  A
C900        O905   1.372       .  S
C901        C902   1.406   1_545  A
C901        H906   1.083       .  S
C902        C903   1.411       .  A
C903        C904   1.399       .  A
C903        O907   1.371       .  S
C904        H908   1.084       .  S
O905        H910   0.992       .  S
O907        H911   0.991       .  S
C913        C914   1.400       .  A
C913        C918   1.407       .  A
C913        H923   1.084       .  S
C914        C915   1.401       .  A
C914        C919   1.482       .  S
C915        C916   1.396       .  A
C915        O920   1.372   1_565  S
C916        C917   1.417       .  A
C916        H921   1.083   1_565  S
C917        C918   1.427       .  A
C918        O922   1.374       .  S
C919        C924   1.406       .  A
C919        C928   1.403   1_565  A
O920        H936   0.992   1_545  S
O922        H933   0.992       .  S
C924        C925   1.401       .  A
C924        O929   1.372       .  S
C925        C926   1.406       .  A
C925        H930   1.083       .  S
C926        C927   1.412   1_565  A
C927        C928   1.402       .  A
C927        O931   1.371       .  S
C928        H932   1.084       .  S
O929        H934   0.992       .  S
O931        H935   0.991       .  S
C937        C938   1.404       .  A
C937        C942   1.401       .  A
C937        H947   1.083       .  S
C938        C939   1.409       .  A
C938        C943   1.489       .  S
C939        C940   1.403       .  A
C939        O944   1.372       .  S
C940        C941   1.408       .  A
C940        H945   1.083       .  S
C941        C942   1.412       .  A
C942        O946   1.371       .  S
C943        C948   1.403       .  A
C943        C952   1.402       .  A
O944        H960   0.992       .  S
O946        H957   0.992       .  S
C948        C949   1.399       .  A
C948        O953   1.373       .  S
C949        C950   1.418       .  A
C949        H954   1.079       .  S
C950        C951   1.423       .  A
C951        C952   1.405       .  A
C951        O955   1.372       .  S
C952        H956   1.083       .  S
O953        H958   0.992       .  S
O955        H959   0.991       .  S
C961        C962   1.396       .  A
C961        C966   1.399       .  A
C961        H971   1.084       .  S
C962        C963   1.405       .  A
C962        C967   1.483       .  S
C963        C964   1.401       .  A
C963        O968   1.372       .  S
C964        C965   1.416       .  A
C964        H969   1.079       .  S
C965        C966   1.426       .  A
C966        O970   1.372       .  S
C967        C972   1.408       .  A
C967        C976   1.402       .  A
O968        H984   0.992       .  S
O970        H981   0.991       .  S
C972        C973   1.400       .  A
C972        O977   1.372       .  S
C973        C974   1.404       .  A
C973        H978   1.084       .  S
C974        C975   1.413       .  A
C975        C976   1.401       .  A
C975        O979   1.371       .  S
C976        H980   1.084       .  S
O977        H982   0.993       .  S
O979        H983   0.992       .  S
