geometry optimzed in LAMMPS
_audit_creation_date              2020-12-01 
_audit_creation_method            'lammps2cif' 
_symmetry_space_group_name_H-M    'P1' 
_symmetry_Int_Tables_number       1 
_symmetry_cell_setting            triclinic 
loop_ 
_symmetry_equiv_pos_as_xyz 
  x,y,z 
_cell_length_a                    41.60208877 
_cell_length_b                    41.63542970456977 
_cell_length_c                    122.90505032223925 
_cell_angle_alpha                 89.98639068506496 
_cell_angle_beta                  89.9373706797711 
_cell_angle_gamma                 90.59403010291174 
loop_ 
_atom_site_label 
_atom_site_type_symbol 
_atom_site_fract_x 
_atom_site_fract_y 
_atom_site_fract_z 
_atom_site_charge 
C1          C  0.65073442  0.14362678  0.46410981     0.86800
C2          C  0.61441023  0.14600225  0.46233619    -0.53400
C3          C  0.59925218  0.11711135  0.46083155     0.09700
C4          C  0.62209706  0.08825649  0.46123072     0.20700
C5          C  0.65441527  0.12042079  0.47377080    -0.54200
C6          C  0.63951818  0.09123993  0.47224975     0.09800
C7          C  0.66309082  0.12478660  0.45421161    -0.53700
C8          C  0.64799938  0.09588795  0.45262687     0.10400
H9          H  0.60188403  0.16874610  0.46240973     0.14900
H10         H  0.60959602  0.06493819  0.45997061     0.00700
H11         H  0.66799833  0.12639999  0.48104293     0.15200
H12         H  0.68228938  0.13334240  0.44895553     0.15000
C13         C  0.65498801  0.36445667  0.46436254     0.86800
C14         C  0.66742004  0.38277084  0.45431304    -0.53400
C15         C  0.65329292  0.41191507  0.45277096     0.09700
C16         C  0.62799468  0.42010996  0.46148072     0.20700
C17         C  0.65998826  0.38790573  0.47389489    -0.54200
C18         C  0.64594974  0.41713789  0.47235976     0.09800
C19         C  0.61848799  0.36251828  0.46283190    -0.53700
C20         C  0.60411784  0.39153709  0.46139382     0.10400
H21         H  0.68608803  0.37389468  0.44897221     0.14900
H22         H  0.61621777  0.44359970  0.46024442     0.00700
H23         H  0.67359655  0.38197357  0.48114280     0.15200
H24         H  0.60519344  0.33996003  0.46316620     0.15000
C25         C  0.32539051  0.36495437  0.46418435     0.86800
C26         C  0.36162507  0.36273051  0.46236003    -0.53400
C27         C  0.37686426  0.39152584  0.46091097     0.09700
C28         C  0.35397160  0.42035339  0.46122357     0.20700
C29         C  0.32171824  0.38829021  0.47382660    -0.54200
C30         C  0.33661036  0.41741386  0.47223851     0.09800
C31         C  0.31291491  0.38355606  0.45425015    -0.53700
C32         C  0.32788576  0.41261405  0.45267819     0.10400
H33         H  0.37422161  0.34002162  0.46255059     0.14900
H34         H  0.36644490  0.44372488  0.45994650     0.00700
H35         H  0.30844056  0.38233969  0.48117894     0.15200
H36         H  0.29365994  0.37499487  0.44903637     0.15000
C37         C  0.32194054  0.14335523  0.46301447     0.86800
C38         C  0.30980287  0.12528529  0.45286470    -0.53400
C39         C  0.32424024  0.09633546  0.45131223     0.09700
C40         C  0.34946258  0.08807787  0.45999005     0.20700
C41         C  0.31710702  0.11962579  0.47250683    -0.54200
C42         C  0.33138704  0.09052103  0.47089819     0.09800
C43         C  0.35832158  0.14566835  0.46147545    -0.53700
C44         C  0.37296835  0.11695126  0.45987162     0.10400
H45         H  0.29141609  0.13417501  0.44742488     0.14900
H46         H  0.36134914  0.06467684  0.45863265     0.00700
H47         H  0.30342145  0.12529587  0.47977137     0.15200
H48         H  0.37133483  0.16840203  0.46173152     0.15000
C49         C  0.87190722  0.58669974  0.28163489     0.86800
C50         C  0.85480047  0.56953917  0.29120602    -0.53400
C51         C  0.82437460  0.58034053  0.29317955     0.09700
C52         C  0.81380592  0.60723569  0.28541568     0.20700
C53         C  0.84874590  0.58281768  0.27190563    -0.54200
C54         C  0.81816985  0.59340511  0.27390557     0.09800
C55         C  0.87034321  0.62238532  0.28459815    -0.53700
C56         C  0.84007260  0.63326973  0.28652423     0.10400
H57         H  0.86560488  0.55093453  0.29611719     0.14900
H58         H  0.78938670  0.61645459  0.28711008     0.00700
H59         H  0.85593328  0.57237269  0.26419815     0.15200
H60         H  0.89151889  0.63783020  0.28496425     0.15000
C61         C  0.09677403  0.58792694  0.28175072     0.86800
C62         C  0.09881269  0.62403750  0.28409386    -0.53400
C63         C  0.12907514  0.63541475  0.28606318     0.09700
C64         C  0.15490251  0.60941840  0.28558853     0.20700
C65         C  0.12050011  0.58258962  0.27232827    -0.54200
C66         C  0.15098246  0.59375151  0.27434281     0.09800
C67         C  0.11288156  0.57230751  0.29176513    -0.53700
C68         C  0.14345403  0.58358317  0.29374104     0.10400
H69         H  0.07786834  0.63939585  0.28406213     0.14900
H70         H  0.17931625  0.61918351  0.28721614     0.00700
H71         H  0.11362869  0.57104799  0.26474824     0.15200
H72         H  0.10153163  0.55412788  0.29682086     0.15000
C73         C  0.87044558  0.90241425  0.28216931     0.86800
C74         C  0.86860098  0.86710435  0.28551339    -0.53400
C75         C  0.83831069  0.85588929  0.28755350     0.09700
C76         C  0.81213897  0.88133145  0.28606576     0.20700
C77         C  0.84746603  0.90506991  0.27237947    -0.54200
C78         C  0.81679192  0.89412277  0.27439141     0.09800
C79         C  0.85331772  0.92028798  0.29150497    -0.53700
C80         C  0.82277675  0.90920626  0.29356759     0.10400
H81         H  0.88974201  0.85209819  0.28607323     0.14900
H82         H  0.78768075  0.87177530  0.28778061     0.00700
H83         H  0.85494562  0.91481350  0.26457466     0.15200
H84         H  0.86407699  0.93976292  0.29612327     0.15000
C85         C  0.09599187  0.90617697  0.28216878     0.86800
C86         C  0.11273117  0.92217472  0.29201726    -0.53400
C87         C  0.14311857  0.91122614  0.29394556     0.09700
C88         C  0.15412488  0.88540036  0.28578957     0.20700
C89         C  0.11923945  0.91138732  0.27257293    -0.54200
C90         C  0.14976202  0.90061887  0.27443948     0.09800
C91         C  0.09767745  0.87021824  0.28460715    -0.53700
C92         C  0.12790872  0.85911621  0.28650219     0.10400
H93         H  0.10169365  0.94013093  0.29714677     0.14900
H94         H  0.17860308  0.87617211  0.28738090     0.00700
H95         H  0.11205863  0.92257377  0.26498823     0.15200
H96         H  0.07646535  0.85479115  0.28475280     0.15000
In97       In  0.65927378  0.57735551  0.37257245     1.36900
C98         C  0.59559031  0.57345646  0.37261875     0.77900
O99         O  0.66785138  0.53007159  0.38117348    -0.60500
O100        O  0.66849275  0.57281838  0.39051679    -0.51500
C101        C  0.69483251  0.56176123  0.35534532     0.70600
O102        O  0.66456070  0.56205431  0.35518807    -0.46300
C103        C  0.66986797  0.64026145  0.37143239     0.75300
O104        O  0.61249731  0.55363246  0.36744268    -0.58200
O105        O  0.68383333  0.62285949  0.37835489    -0.48300
O106        O  0.61124386  0.59435617  0.37781789    -0.54600
C107        C  0.67011522  0.54265451  0.39047719     0.85500
O108        O  0.70713206  0.56757132  0.36453125    -0.56500
O109        O  0.65145541  0.62534871  0.36502538    -0.59800
In110      In  0.66164620  0.92936836  0.37326993     1.36900
C111        C  0.66989014  0.86630161  0.37193277     0.77900
O112        O  0.61299208  0.91647177  0.37941850    -0.60500
O113        O  0.61635475  0.95504593  0.36814681    -0.51500
C114        C  0.67371112  0.96311078  0.39122700     0.70600
O115        O  0.66828886  0.93330805  0.39128495    -0.46300
C116        C  0.69705806  0.94386442  0.35584768     0.75300
O117        O  0.68665571  0.88357817  0.37823796    -0.58200
O118        O  0.66679109  0.94199166  0.35562306    -0.48300
O119        O  0.64965526  0.88135309  0.36636080    -0.54600
C120        C  0.59852446  0.93760737  0.37407830     0.85500
O121        O  0.67534354  0.97553872  0.38187353    -0.56500
O122        O  0.70928587  0.94059971  0.36518023    -0.59800
In123      In  0.30587715  0.57764363  0.37297499     1.36900
C124        C  0.36944952  0.57462192  0.37236848     0.77900
O125        O  0.31001947  0.62556392  0.36528024    -0.60500
O126        O  0.27827660  0.62090420  0.37877850    -0.51500
C127        C  0.27105454  0.55935626  0.35589392     0.70600
O128        O  0.30115981  0.56292861  0.35552273    -0.46300
C129        C  0.29765869  0.54353659  0.39109314     0.75300
O130        O  0.35176634  0.55369701  0.36789314    -0.58200
O131        O  0.30287897  0.57337364  0.39118807    -0.48300
O132        O  0.35464655  0.59681847  0.37708688    -0.54600
C133        C  0.29065789  0.63901854  0.37163771     0.85500
O134        O  0.25881937  0.56307020  0.36521363    -0.56500
O135        O  0.29490315  0.53141920  0.38173471    -0.59800
In136      In  0.30911459  0.92540731  0.37285976     1.36900
C137        C  0.37276711  0.92887996  0.37327756     0.77900
O138        O  0.30480035  0.97437162  0.38030546    -0.60500
O139        O  0.29816202  0.93366148  0.39051187    -0.51500
C140        C  0.27269948  0.94045329  0.35585544     0.70600
O141        O  0.30297228  0.94016854  0.35547626    -0.46300
C142        C  0.29658772  0.86313720  0.37192259     0.75300
O143        O  0.35619107  0.94556823  0.36686147    -0.58200
O144        O  0.28281052  0.88098784  0.37875775    -0.48300
O145        O  0.35684010  0.91009628  0.37929898    -0.54600
C146        C  0.30024945  0.96380013  0.38979645     0.85500
O147        O  0.26092020  0.93519612  0.36515976    -0.56500
O148        O  0.31660122  0.87714528  0.36581553    -0.59800
C149        C  0.59475268  0.90619464  0.21400389     0.86800
C150        C  0.59487223  0.87009484  0.21181751    -0.53400
C151        C  0.62465144  0.85758137  0.21027068     0.09700
C152        C  0.65205510  0.88254966  0.21104362     0.20700
C153        C  0.61747063  0.91081780  0.22381456    -0.54200
C154        C  0.64762797  0.89846579  0.22227074     0.09800
C155        C  0.61305049  0.92086751  0.20424942    -0.53700
C156        C  0.64298057  0.90839505  0.20265260     0.10400
H157        H  0.57301215  0.85560222  0.21160949     0.14900
H158        H  0.67610692  0.87200309  0.20968608     0.00700
H159        H  0.61020216  0.92253503  0.23129979     0.15200
H160        H  0.60329424  0.93906083  0.19892297     0.15000
C161        C  0.59530112  0.58321770  0.21402225     0.86800
C162        C  0.61303512  0.57095115  0.20380369    -0.53400
C163        C  0.64298812  0.58430419  0.20233602     0.09700
C164        C  0.65247538  0.60851623  0.21126569     0.20700
C165        C  0.61863847  0.57692658  0.22354702    -0.54200
C166        C  0.64872875  0.59012837  0.22207451     0.09800
C167        C  0.59545221  0.61972407  0.21271369    -0.53700
C168        C  0.62515817  0.63303906  0.21128373     0.10400
H169        H  0.60294490  0.55350794  0.19818745     0.14900
H170        H  0.67644136  0.61987256  0.21004722     0.00700
H171        H  0.61189103  0.56339612  0.23076180     0.15200
H172        H  0.57365631  0.63386992  0.21292374     0.15000
C173        C  0.36965933  0.91250173  0.21368587     0.86800
C174        C  0.35317355  0.92828331  0.20384080    -0.53400
C175        C  0.32290224  0.91655120  0.20182009     0.09700
C176        C  0.31179845  0.89028213  0.20987402     0.20700
C177        C  0.34605970  0.91705365  0.22322505    -0.54200
C178        C  0.31563730  0.90543825  0.22124607     0.09800
C179        C  0.36821538  0.87657356  0.21120618    -0.53700
C180        C  0.33817554  0.86476955  0.20922129     0.10400
H181        H  0.36420725  0.94673523  0.19881694     0.14900
H182        H  0.28749435  0.88029923  0.20818505     0.00700
H183        H  0.35298680  0.92829072  0.23084908     0.15200
H184        H  0.38946718  0.86163768  0.21120031     0.15000
C185        C  0.37097047  0.59173651  0.21387396     0.86800
C186        C  0.37095118  0.62812749  0.21210154    -0.53400
C187        C  0.34118560  0.64082750  0.21050487     0.09700
C188        C  0.31385276  0.61577228  0.21089756     0.20700
C189        C  0.34777962  0.58613630  0.22348461    -0.54200
C190        C  0.31782629  0.59869252  0.22191757     0.09800
C191        C  0.35312424  0.57803743  0.20388732    -0.53700
C192        C  0.32333375  0.59074796  0.20229695     0.10400
H193        H  0.39286326  0.64253071  0.21206676     0.14900
H194        H  0.28978617  0.62632574  0.20958188     0.00700
H195        H  0.35449574  0.57337771  0.23083013     0.15200
H196        H  0.36289760  0.56004058  0.19848822     0.15000
In197      In  0.81101531  0.57203351  0.12255530     1.36900
C198        C  0.87425517  0.56329772  0.12227202     0.77900
O199        O  0.79817727  0.52510150  0.11424807    -0.60500
O200        O  0.80456081  0.56657490  0.10444460    -0.51500
C201        C  0.77573907  0.56033809  0.14032131     0.70600
O202        O  0.80594880  0.56293232  0.14051632    -0.46300
C203        C  0.80174956  0.63528193  0.12307868     0.75300
O204        O  0.85588056  0.54521316  0.12777839    -0.58200
O205        O  0.78549978  0.61712550  0.11689336    -0.48300
O206        O  0.86023750  0.58519628  0.11714289    -0.54600
C207        C  0.79974123  0.53666209  0.10476387     0.85500
O208        O  0.76363146  0.56111380  0.13090575    -0.56500
O209        O  0.82225639  0.62107296  0.12879287    -0.59800
In210      In  0.16424323  0.57518520  0.12111609     1.36900
C211        C  0.17794825  0.63740044  0.12092660     0.77900
O212        O  0.11539273  0.59084376  0.11602906    -0.60500
O213        O  0.11832213  0.55045866  0.12651790    -0.51500
C214        C  0.17290303  0.53749693  0.10400574     0.70600
O215        O  0.17102539  0.56760188  0.10328454    -0.46300
C216        C  0.19965559  0.56394491  0.13863502     0.75300
O217        O  0.19134278  0.61836964  0.11436867    -0.58200
O218        O  0.16958344  0.56704068  0.13898122    -0.48300
O219        O  0.15794058  0.62452773  0.12730134    -0.54600
C220        C  0.10059388  0.56914655  0.12118523     0.85500
O221        O  0.17288904  0.52667418  0.11359690    -0.56500
O222        O  0.21154198  0.56390531  0.12917691    -0.59800
In223      In  0.16129055  0.92432218  0.12123752     1.36900
C224        C  0.09752103  0.92889560  0.12159135     0.77900
O225        O  0.17087748  0.97271264  0.11342271    -0.60500
O226        O  0.16838726  0.93134895  0.10335996    -0.51500
C227        C  0.19688111  0.93714554  0.13874254     0.70600
O228        O  0.16669121  0.93462601  0.13898914    -0.46300
C229        C  0.17399996  0.86211355  0.12118356     0.75300
O230        O  0.11556508  0.94913461  0.12625584    -0.58200
O231        O  0.18617040  0.88081558  0.11417118    -0.48300
O232        O  0.11204218  0.90650728  0.11687453    -0.54600
C233        C  0.17103442  0.96147023  0.10389459     0.85500
O234        O  0.20906212  0.93530358  0.12935176    -0.56500
O235        O  0.15580570  0.87533511  0.12799526    -0.59800
In236      In  0.80756240  0.92464574  0.12235514     1.36900
C237        C  0.79902459  0.86150470  0.12293281     0.77900
O238        O  0.85595360  0.90807131  0.11751750    -0.60500
O239        O  0.85378270  0.95252748  0.12589633    -0.51500
C240        C  0.79433689  0.95781348  0.10434373     0.70600
O241        O  0.79903949  0.92801823  0.10439431    -0.46300
C242        C  0.77267831  0.93655181  0.14018518     0.75300
O243        O  0.78380689  0.87903379  0.11635487    -0.58200
O244        O  0.80298560  0.93774766  0.14011162    -0.48300
O245        O  0.81772006  0.87639860  0.12926404    -0.54600
C246        C  0.87112761  0.93164670  0.12138216     0.85500
O247        O  0.79414037  0.97063721  0.11364734    -0.56500
O248        O  0.76013354  0.93169763  0.13097986    -0.59800
C249        C  0.15018924  0.36171747  0.02944425     0.86800
C250        C  0.11353342  0.36006535  0.03026741    -0.53400
C251        C  0.09926858  0.38894203  0.03181298     0.09700
C252        C  0.12316159  0.41724944  0.03250855     0.20700
C253        C  0.15713741  0.38624631  0.02034757    -0.54200
C254        C  0.14314954  0.41544322  0.02199557     0.09800
C255        C  0.16082997  0.37864239  0.04003195    -0.53700
C256        C  0.14660396  0.40777149  0.04162659     0.10400
H257        H  0.09996229  0.33769917  0.02965232     0.14900
H258        H  0.11117728  0.44061201  0.03381817     0.00700
H259        H  0.17194189  0.38097878  0.01330220     0.15200
H260        H  0.17807824  0.36895842  0.04571953     0.15000
C261        C  0.82353496  0.35988593  0.03046415     0.86800
C262        C  0.81039863  0.37780198  0.04050554    -0.53400
C263        C  0.82397258  0.40748650  0.04209406     0.09700
C264        C  0.84925018  0.41665960  0.03343076     0.20700
C265        C  0.81852118  0.38322498  0.02083231    -0.54200
C266        C  0.83198524  0.41313490  0.02241442     0.09800
C267        C  0.85992229  0.35956528  0.03217178    -0.53700
C268        C  0.87346961  0.38912252  0.03367492     0.10400
H269        H  0.79208329  0.36811281  0.04589251     0.14900
H270        H  0.86081107  0.44045234  0.03474420     0.00700
H271        H  0.80571097  0.37657725  0.01346718     0.15200
H272        H  0.87385564  0.33764736  0.03196749     0.15000
C273        C  0.82516469  0.13650724  0.03119748     0.86800
C274        C  0.86110527  0.13844628  0.03360419    -0.53400
C275        C  0.87523674  0.10961230  0.03557599     0.09700
C276        C  0.85157815  0.08089014  0.03487791     0.20700
C277        C  0.82220053  0.11285018  0.02164652    -0.54200
C278        C  0.83594953  0.08362918  0.02355167     0.09800
C279        C  0.81066837  0.11837786  0.04099226    -0.53700
C280        C  0.82443389  0.08918013  0.04292951     0.10400
H281        H  0.87420367  0.16112274  0.03358155     0.14900
H282        H  0.86310286  0.05745776  0.03644606     0.00700
H283        H  0.81005633  0.11870400  0.01409875     0.15200
H284        H  0.79099689  0.12739517  0.04586514     0.15000
C285        C  0.15161812  0.14097659  0.03017933     0.86800
C286        C  0.16455162  0.12351353  0.04030949    -0.53400
C287        C  0.14998499  0.09448183  0.04221999     0.09700
C288        C  0.12410847  0.08549396  0.03378935     0.20700
C289        C  0.15546755  0.11692790  0.02078277    -0.54200
C290        C  0.14106608  0.08777981  0.02268791     0.09800
C291        C  0.11523635  0.14277877  0.03207331    -0.53700
C292        C  0.10069795  0.11379175  0.03397214     0.10400
H293        H  0.18335515  0.13299130  0.04553034     0.14900
H294        H  0.11212531  0.06204839  0.03531977     0.00700
H295        H  0.16842126  0.12251217  0.01333301     0.15200
H296        H  0.10224760  0.16524295  0.03181629     0.15000
C297        C  0.65128508  0.86461968  0.53007680     0.86800
C298        C  0.61480063  0.86399578  0.53174781    -0.53400
C299        C  0.60158484  0.89347165  0.53323415     0.09700
C300        C  0.62629852  0.92120847  0.53302468     0.20700
C301        C  0.65687028  0.88797303  0.52051397    -0.54200
C302        C  0.64391222  0.91768386  0.52210030     0.09800
C303        C  0.66441690  0.88245565  0.54015627    -0.53700
C304        C  0.65121603  0.91207678  0.54170822     0.10400
H305        H  0.60060682  0.84195554  0.53157377     0.14900
H306        H  0.61532730  0.94510871  0.53428751     0.00700
H307        H  0.66989233  0.88155778  0.51318025     0.15200
H308        H  0.68240037  0.87287174  0.54560090     0.15000
C309        C  0.65227051  0.64227051  0.53052236     0.86800
C310        C  0.66435033  0.62503028  0.54077683    -0.53400
C311        C  0.65052954  0.59553772  0.54245245     0.09700
C312        C  0.62591562  0.58579828  0.53364193     0.20700
C313        C  0.65804506  0.61849694  0.52116153    -0.54200
C314        C  0.64432483  0.58882444  0.52280234     0.09800
C315        C  0.61575296  0.64297553  0.53186971    -0.53700
C316        C  0.60176728  0.61363177  0.53345045     0.10400
H317        H  0.68229097  0.63492181  0.54625051     0.14900
H318        H  0.61438514  0.56196926  0.53500578     0.00700
H319        H  0.67166132  0.62466002  0.51389984     0.15200
H320        H  0.60206390  0.66502200  0.53144167     0.15000
C321        C  0.32503629  0.86682807  0.52967582     0.86800
C322        C  0.31207565  0.88388252  0.53986645    -0.53400
C323        C  0.32603155  0.91316458  0.54180397     0.09700
C324        C  0.35172566  0.92285131  0.53332743     0.20700
C325        C  0.32050186  0.89109305  0.52036119    -0.54200
C326        C  0.33437476  0.92057450  0.52228340     0.09800
C327        C  0.36135171  0.86562429  0.53142021    -0.53700
C328        C  0.37552458  0.89474131  0.53329925     0.10400
H329        H  0.29327303  0.87413472  0.54504574     0.14900
H330        H  0.36345881  0.94644295  0.53490833     0.00700
H331        H  0.30736065  0.88543577  0.51296858     0.15200
H332        H  0.37477852  0.84340583  0.53105072     0.15000
C333        C  0.32591768  0.64511106  0.52932409     0.86800
C334        C  0.36216728  0.64652285  0.53145248    -0.53400
C335        C  0.37566887  0.61737587  0.53338341     0.09700
C336        C  0.35145797  0.58919088  0.53312591     0.20700
C337        C  0.32190026  0.62093222  0.51991454    -0.54200
C338        C  0.33525797  0.59156155  0.52191541     0.09800
C339        C  0.31188965  0.62779879  0.53937957    -0.53700
C340        C  0.32529299  0.59858507  0.54136347     0.10400
H341        H  0.37605141  0.66876012  0.53122884     0.14900
H342        H  0.36261046  0.56561778  0.53483245     0.00700
H343        H  0.30969963  0.62664878  0.51236433     0.15200
H344        H  0.29296286  0.63726681  0.54448312     0.15000
C345        C  0.87558210  0.41251293  0.71235893     0.86800
C346        C  0.85803617  0.42940310  0.70295483    -0.53400
C347        C  0.82774623  0.41756955  0.70104236     0.09700
C348        C  0.81765551  0.39006201  0.70874015     0.20700
C349        C  0.85270642  0.41537857  0.72219010    -0.54200
C350        C  0.82224644  0.40373585  0.72029234     0.09800
C351        C  0.87436478  0.37691605  0.70931560    -0.53700
C352        C  0.84425304  0.36490626  0.70740979     0.10400
H353        H  0.86841574  0.44869552  0.69813427     0.14900
H354        H  0.79327106  0.38018248  0.70711147     0.00700
H355        H  0.86001383  0.42573280  0.72991876     0.15200
H356        H  0.89585712  0.36240804  0.70885384     0.15000
C357        C  0.10082521  0.41112655  0.71227562     0.86800
C358        C  0.10064414  0.37475123  0.71071215    -0.53400
C359        C  0.13020450  0.36172828  0.70919640     0.09700
C360        C  0.15779324  0.38661692  0.70936565     0.20700
C361        C  0.12418509  0.41712909  0.72182884    -0.54200
C362        C  0.15421575  0.40442906  0.72030402     0.09800
C363        C  0.11860961  0.42422894  0.70217628    -0.53700
C364        C  0.14839688  0.41135210  0.70062463     0.10400
H365        H  0.07864850  0.36046134  0.71084113     0.14900
H366        H  0.18168409  0.37571511  0.70803023     0.00700
H367        H  0.11749333  0.43037125  0.72907615     0.15200
H368        H  0.10874248  0.44197686  0.69670282     0.15000
C369        C  0.87062177  0.09368843  0.71346838     0.86800
C370        C  0.86973195  0.12956785  0.71085755    -0.53400
C371        C  0.83978889  0.14125065  0.70886034     0.09700
C372        C  0.81295183  0.11558345  0.70978421     0.20700
C373        C  0.84728372  0.08935864  0.72311493    -0.54200
C374        C  0.81696637  0.10074585  0.72122648     0.09800
C375        C  0.85330727  0.07750451  0.70375208    -0.53700
C376        C  0.82309412  0.08894489  0.70179995     0.10400
H377        H  0.89131903  0.14443501  0.71065779     0.14900
H378        H  0.78876072  0.12537510  0.70814403     0.00700
H379        H  0.85424004  0.07811203  0.73071088     0.15200
H380        H  0.86365478  0.05861567  0.69884794     0.15000
C381        C  0.09613349  0.08838236  0.71415426     0.86800
C382        C  0.11256007  0.07507975  0.70382680    -0.53400
C383        C  0.14272532  0.08723648  0.70200083     0.09700
C384        C  0.15401194  0.11138994  0.71072170     0.20700
C385        C  0.11998257  0.08160848  0.72346766    -0.54200
C386        C  0.15043510  0.09355373  0.72164326     0.09800
C387        C  0.09757260  0.12481178  0.71268530    -0.53700
C388        C  0.12763652  0.13697240  0.71087320     0.10400
H389        H  0.10161271  0.05771194  0.69837719     0.14900
H390        H  0.17835978  0.12163440  0.70923569     0.00700
H391        H  0.11331279  0.06868280  0.73081605     0.15200
H392        H  0.07632647  0.13973078  0.71303472     0.15000
In393      In  0.66323990  0.43023014  0.62152491     1.36900
C394        C  0.67013879  0.36660195  0.62204239     0.77900
O395        O  0.71015786  0.44230753  0.62988930    -0.60500
O396        O  0.66785404  0.43943060  0.63947268    -0.51500
C397        C  0.67825858  0.46654227  0.60441858     0.70600
O398        O  0.67961939  0.43630238  0.60425633    -0.46300
C399        C  0.59991494  0.43817445  0.62012903     0.75300
O400        O  0.68790226  0.38433462  0.61618933    -0.58200
O401        O  0.61731621  0.45563898  0.62617284    -0.48300
O402        O  0.64945986  0.38144113  0.62751757    -0.54600
C403        C  0.69791221  0.44326403  0.63926404     0.85500
O404        O  0.67123355  0.47842055  0.61354105    -0.56500
O405        O  0.61497744  0.41747523  0.61473984    -0.59800
In406      In  0.65875474  0.07619488  0.62186736     1.36900
C407        C  0.59515443  0.06798258  0.62165963     0.77900
O408        O  0.64550301  0.12583908  0.62683034    -0.60500
O409        O  0.68575161  0.12124161  0.61638896    -0.51500
C410        C  0.69327357  0.06335311  0.63973325     0.70600
O411        O  0.66339189  0.06784895  0.63987555    -0.46300
C412        C  0.67181191  0.03954602  0.60461013     0.75300
O413        O  0.61292729  0.05232881  0.62802164    -0.58200
O414        O  0.67010544  0.06968933  0.60414117    -0.48300
O415        O  0.60998486  0.08665770  0.61531255    -0.54600
C416        C  0.66747673  0.13982530  0.62157226     0.85500
O417        O  0.70561817  0.06414987  0.63035470    -0.56500
O418        O  0.66843131  0.02800174  0.61403797    -0.59800
In419      In  0.30510986  0.07794269  0.62117985     1.36900
C420        C  0.36857651  0.06985410  0.62110740     0.77900
O421        O  0.29522395  0.03066522  0.61282283    -0.60500
O422        O  0.29646051  0.07321208  0.60329897    -0.51500
C423        C  0.26663980  0.06555126  0.63813886     0.70600
O424        O  0.29686049  0.06659788  0.63877860    -0.46300
C425        C  0.29825755  0.14107513  0.62116441     0.75300
O426        O  0.35008436  0.05141377  0.62641619    -0.58200
O427        O  0.28408525  0.12331739  0.61432355    -0.48300
O428        O  0.35463098  0.09203657  0.61611090    -0.54600
C429        C  0.29428670  0.04304072  0.60346032     0.85500
O430        O  0.25576735  0.06900316  0.62862845    -0.56500
O431        O  0.31495052  0.12642827  0.62808528    -0.59800
In432      In  0.30906991  0.43007314  0.61983270     1.36900
C433        C  0.37307745  0.43421050  0.61967327     0.77900
O434        O  0.31471529  0.38137701  0.62677398    -0.60500
O435        O  0.28692054  0.38518868  0.61234032    -0.51500
C436        C  0.27349869  0.44149456  0.63742031     0.70600
O437        O  0.30368574  0.43994791  0.63765402    -0.46300
C438        C  0.29616523  0.46928639  0.60326748     0.75300
O439        O  0.35597312  0.45329762  0.62507349    -0.58200
O440        O  0.29519751  0.43912796  0.60244613    -0.48300
O441        O  0.35748210  0.41374776  0.61424499    -0.54600
C442        C  0.29871787  0.36710989  0.61952908     0.85500
O443        O  0.26136631  0.43923548  0.62804172    -0.56500
O444        O  0.30221765  0.47953340  0.61270761    -0.59800
C445        C  0.59580062  0.08803704  0.78153321     0.86800
C446        C  0.59607534  0.12389127  0.78441426    -0.53400
C447        C  0.62595467  0.13640341  0.78636939     0.09700
C448        C  0.65306095  0.11175272  0.78533934     0.20700
C449        C  0.61922963  0.08524852  0.77184973    -0.54200
C450        C  0.64929423  0.09758290  0.77385180     0.09800
C451        C  0.61317895  0.07200815  0.79114866    -0.53700
C452        C  0.64310480  0.08456762  0.79315028     0.10400
H453        H  0.57440778  0.13820529  0.78466015     0.14900
H454        H  0.67723920  0.12209844  0.78703045     0.00700
H455        H  0.61256018  0.07440136  0.76413236     0.15200
H456        H  0.60295634  0.05287171  0.79607297     0.15000
C457        C  0.37260444  0.08888585  0.78162155     0.86800
C458        C  0.35535257  0.07652202  0.79191263    -0.53400
C459        C  0.32536018  0.08890516  0.79332747     0.09700
C460        C  0.31513870  0.11225188  0.78426949     0.20700
C461        C  0.34936547  0.08129563  0.77217666    -0.54200
C462        C  0.31915545  0.09344121  0.77356705     0.09800
C463        C  0.37191242  0.12558139  0.78276108    -0.53700
C464        C  0.34190399  0.13790738  0.78409811     0.10400
H465        H  0.36578849  0.05992230  0.79767144     0.14900
H466        H  0.29095854  0.12266101  0.78547144     0.00700
H467        H  0.35629860  0.06757654  0.76505562     0.15200
H468        H  0.39347043  0.14051628  0.78254197     0.15000
C469        C  0.37472932  0.41117820  0.78112372     0.86800
C470        C  0.37292327  0.37490782  0.78306470    -0.53400
C471        C  0.34261015  0.36296921  0.78466223     0.09700
C472        C  0.31637123  0.38879091  0.78419751     0.20700
C473        C  0.35177755  0.41702761  0.77148976    -0.54200
C474        C  0.32116457  0.40546668  0.77308639     0.09800
C475        C  0.35753247  0.42563664  0.79110066    -0.53700
C476        C  0.32701526  0.41383002  0.79276029     0.10400
H477        H  0.39411707  0.35987906  0.78314016     0.14900
H478        H  0.29180244  0.37889702  0.78554049     0.00700
H479        H  0.35916957  0.42922273  0.76407414     0.15200
H480        H  0.36839786  0.44320055  0.79650466     0.15000
C481        C  0.59971599  0.40956847  0.78038323     0.86800
C482        C  0.61908746  0.42422774  0.78989331    -0.53400
C483        C  0.64854346  0.41054996  0.79142016     0.09700
C484        C  0.65612312  0.38381235  0.78320365     0.20700
C485        C  0.62213414  0.41258307  0.77041831    -0.54200
C486        C  0.65181993  0.39918780  0.77189829     0.09800
C487        C  0.59852172  0.37357416  0.78290173    -0.53700
C488        C  0.62788001  0.36000051  0.78440969     0.10400
H489        H  0.61021493  0.44316060  0.79511303     0.14900
H490        H  0.67980633  0.37246478  0.78450359     0.00700
H491        H  0.61514718  0.42444374  0.76293149     0.15200
H492        H  0.57611532  0.36005285  0.78347119     0.15000
C493        C  0.82499785  0.63670942  0.96348616     0.86800
C494        C  0.80943589  0.61922335  0.95368752    -0.53400
C495        C  0.82278865  0.58998811  0.95146048     0.09700
C496        C  0.85029910  0.58096752  0.95922099     0.20700
C497        C  0.82263613  0.61246873  0.97294961    -0.54200
C498        C  0.83577004  0.58315001  0.97070831     0.09800
C499        C  0.86077631  0.63832085  0.96065325    -0.53700
C500        C  0.87416940  0.60932370  0.95842627     0.10400
H501        H  0.78976088  0.62872846  0.94894160     0.14900
H502        H  0.86154575  0.55754107  0.95740980     0.00700
H503        H  0.81137523  0.61804152  0.98068491     0.15200
H504        H  0.87442220  0.66070187  0.96060374     0.15000
C505        C  0.81942327  0.85952035  0.96488877     0.86800
C506        C  0.85561327  0.85934460  0.96274393    -0.53400
C507        C  0.86896263  0.88890374  0.96092304     0.09700
C508        C  0.84454259  0.91633939  0.96134635     0.20700
C509        C  0.81522326  0.88309005  0.97442247    -0.54200
C510        C  0.82836717  0.91293267  0.97255876     0.09800
C511        C  0.80523005  0.87688733  0.95492309    -0.53700
C512        C  0.81844282  0.90658245  0.95305963     0.10400
H513        H  0.86957271  0.83744718  0.96287997     0.14900
H514        H  0.85562845  0.94025939  0.95979293     0.00700
H515        H  0.80329613  0.87658917  0.98198148     0.15200
H516        H  0.78660040  0.86686882  0.94974319     0.15000
C517        C  0.14553785  0.86388011  0.96416441     0.86800
C518        C  0.15751619  0.88125881  0.95380495    -0.53400
C519        C  0.14399444  0.91068202  0.95218467     0.09700
C520        C  0.11955410  0.91994268  0.96106006     0.20700
C521        C  0.15176057  0.88789087  0.97346571    -0.54200
C522        C  0.13823766  0.91732546  0.97180092     0.09800
C523        C  0.10895712  0.86271629  0.96297199    -0.53700
C524        C  0.09516378  0.89190762  0.96141000     0.10400
H525        H  0.17557748  0.87174502  0.94836615     0.14900
H526        H  0.10811231  0.94358428  0.95975895     0.00700
H527        H  0.16559745  0.88210320  0.98067774     0.15200
H528        H  0.09513145  0.84050571  0.96354552     0.15000
C529        C  0.14783232  0.64190891  0.96475992     0.86800
C530        C  0.11159419  0.64218485  0.96256022    -0.53400
C531        C  0.09845143  0.61264208  0.96055939     0.09700
C532        C  0.12291637  0.58523645  0.96098827     0.20700
C533        C  0.15203013  0.61798152  0.97418517    -0.54200
C534        C  0.13917313  0.58819869  0.97216971     0.09800
C535        C  0.16222072  0.62488819  0.95473543    -0.53700
C536        C  0.14904351  0.59523552  0.95278343     0.10400
H537        H  0.09761110  0.66406573  0.96262098     0.14900
H538        H  0.11203243  0.56127172  0.95936729     0.00700
H539        H  0.16458663  0.62394649  0.98166864     0.15200
H540        H  0.18115248  0.63486676  0.94966104     0.15000
In541      In  0.16229104  0.07884198  0.87344229     1.36900
C542        C  0.09889174  0.07141245  0.87354384     0.77900
O543        O  0.17173215  0.03072504  0.88113769    -0.60500
O544        O  0.17213689  0.07225775  0.89118236    -0.51500
C545        C  0.19938401  0.06653404  0.85651537     0.70600
O546        O  0.16927516  0.06869177  0.85584052    -0.46300
C547        C  0.17265459  0.14177933  0.87283061     0.75300
O548        O  0.11671368  0.05332681  0.86800383    -0.58200
O549        O  0.18497171  0.12435850  0.88009695    -0.48300
O550        O  0.11350040  0.09287559  0.87883659    -0.54600
C551        C  0.17402578  0.04211197  0.89062133     0.85500
O552        O  0.21057801  0.06842460  0.86603538    -0.56500
O553        O  0.15551169  0.12696879  0.86601122    -0.59800
In554      In  0.80924178  0.06968998  0.87257382     1.36900
C555        C  0.87284711  0.06562097  0.87296796     0.77900
O556        O  0.81833853  0.11832395  0.86598887    -0.60500
O557        O  0.78388250  0.11373723  0.87874401    -0.51500
C558        C  0.77286245  0.05812859  0.85519561     0.70600
O559        O  0.80311731  0.05682487  0.85495558    -0.46300
C560        C  0.79843904  0.03216946  0.88972852     0.75300
O561        O  0.85571376  0.04755832  0.86704614    -0.58200
O562        O  0.79907522  0.06236039  0.89026943    -0.48300
O563        O  0.85748830  0.08570826  0.87852176    -0.54600
C564        C  0.79847687  0.13199146  0.87213655     0.85500
O565        O  0.76104552  0.06262417  0.86452085    -0.56500
O566        O  0.80119244  0.02093869  0.88024314    -0.59800
In567      In  0.16203173  0.42945120  0.87320421     1.36900
C568        C  0.17303491  0.36707897  0.87327867     0.77900
O569        O  0.11304186  0.41231070  0.87801975    -0.60500
O570        O  0.11608250  0.45447704  0.86837943    -0.51500
C571        C  0.17297986  0.46656719  0.89045064     0.70600
O572        O  0.16890695  0.43663551  0.89110413    -0.46300
C573        C  0.19844424  0.44059035  0.85565720     0.75300
O574        O  0.18515952  0.38543317  0.88039574    -0.58200
O575        O  0.16813516  0.44108580  0.85545492    -0.48300
O576        O  0.15575220  0.38073196  0.86630229    -0.54600
C577        C  0.09829123  0.43460218  0.87335511     0.85500
O578        O  0.17377828  0.47745234  0.88087224    -0.56500
O579        O  0.21032337  0.43693629  0.86502444    -0.59800
In580      In  0.80842269  0.42004026  0.87276452     1.36900
C581        C  0.79794387  0.35718474  0.87273770     0.77900
O582        O  0.76084105  0.42896291  0.86449354    -0.60500
O583        O  0.80347207  0.43077991  0.85498279    -0.51500
C584        C  0.79724658  0.45561719  0.89034043     0.70600
O585        O  0.80200847  0.42582740  0.89074389    -0.46300
C586        C  0.87197557  0.42772237  0.87297589     0.75300
O587        O  0.78350327  0.37544972  0.87928593    -0.58200
O588        O  0.85402111  0.44708374  0.86800832    -0.48300
O589        O  0.81689308  0.37118054  0.86626047    -0.54600
C590        C  0.77321642  0.43179365  0.85515137     0.85500
O591        O  0.79591312  0.46706625  0.88085020    -0.56500
O592        O  0.85743508  0.40486308  0.87758321    -0.59800
C593        C  0.95571529  0.44730636  0.87095283     0.20700
C594        C  0.98359243  0.46340004  0.86729895    -0.39200
C595        C  0.01289402  0.45052080  0.87083978     0.19600
C596        C  0.01415219  0.42382060  0.87754386     0.22300
C597        C  0.98642083  0.40791155  0.88122991    -0.39700
C598        C  0.95730225  0.42061455  0.87764778     0.21100
N599        N  0.92494397  0.45379200  0.86843793    -0.33000
C600        C  0.90711116  0.43088137  0.87355647    -0.10500
C601        C  0.92643114  0.40991297  0.87938764    -0.29400
N602        N  0.04465630  0.41535690  0.87938863    -0.46000
C603        C  0.06311028  0.43664472  0.87379212    -0.05200
C604        C  0.04425376  0.45914758  0.86840309    -0.22600
H605        H  0.98257219  0.48395044  0.86192151     0.19200
H606        H  0.98746109  0.38673052  0.88632255     0.18000
H607        H  0.91887550  0.38925404  0.88412904     0.14300
H608        H  0.05235474  0.47856574  0.86319198     0.14100
H609        H  0.91665058  0.47222218  0.86343993     0.32300
H610        H  0.05244621  0.39582884  0.88399128     0.35100
C611        C  0.80084520  0.27337879  0.86755345     0.20700
C612        C  0.81110745  0.24580339  0.86216737    -0.39200
C613        C  0.80078969  0.21675133  0.86668816     0.19600
C614        C  0.78170720  0.21503097  0.87591574     0.22300
C615        C  0.77134906  0.24281634  0.88134179    -0.39700
C616        C  0.78165625  0.27212992  0.87676565     0.21100
N617        N  0.80840810  0.30373424  0.86497949    -0.33000
C618        C  0.79394813  0.32220183  0.87254904    -0.10500
C619        C  0.77692303  0.30347332  0.88006829    -0.29400
N620        N  0.77701700  0.18422179  0.87889759    -0.46000
C621        C  0.79361103  0.16665909  0.87153422    -0.05200
C622        C  0.80837212  0.18605071  0.86376325    -0.22600
H623        H  0.82660140  0.24689032  0.85509145     0.19200
H624        H  0.75692774  0.24169459  0.88866917     0.18000
H625        H  0.76359912  0.31161882  0.88709522     0.14300
H626        H  0.82384477  0.17870055  0.85714764     0.14100
H627        H  0.82296192  0.31142254  0.85853233     0.32300
H628        H  0.76460368  0.17578816  0.88573394     0.35100
C629        C  0.17213598  0.28342916  0.86773693     0.20700
C630        C  0.16223518  0.25560492  0.86227950    -0.39200
C631        C  0.17119549  0.22669727  0.86710934     0.19600
C632        C  0.18880851  0.22542456  0.87665237     0.22300
C633        C  0.19884729  0.25343362  0.88212709    -0.39700
C634        C  0.18974109  0.28254176  0.87729038     0.21100
N635        N  0.16493423  0.31365143  0.86506985    -0.33000
C636        C  0.17782002  0.33232516  0.87297151    -0.10500
C637        C  0.19373741  0.31392767  0.88073967    -0.29400
N638        N  0.19260338  0.19476426  0.87983450    -0.46000
C639        C  0.17706536  0.17671371  0.87226652    -0.05200
C640        C  0.16362902  0.19575391  0.86419446    -0.22600
H641        H  0.14781505  0.25641146  0.85495947     0.19200
H642        H  0.21197333  0.25261297  0.88971826     0.18000
H643        H  0.20553577  0.32225663  0.88807385     0.14300
H644        H  0.14924275  0.18801442  0.85732516     0.14100
H645        H  0.15122840  0.32107493  0.85842578     0.32300
H646        H  0.20405292  0.18669640  0.88686695     0.35100
C647        C  0.01529929  0.05239160  0.87105197     0.20700
C648        C  0.98750842  0.03677666  0.86714917    -0.39200
C649        C  0.95818000  0.04974931  0.87062174     0.19600
C650        C  0.95678912  0.07601115  0.87751896     0.22300
C651        C  0.98444175  0.09141919  0.88145661    -0.39700
C652        C  0.01359348  0.07866441  0.87793103     0.21100
N653        N  0.04611066  0.04589196  0.86860628    -0.33000
C654        C  0.06380678  0.06836359  0.87397266    -0.10500
C655        C  0.04440922  0.08904171  0.87988365    -0.29400
N656        N  0.92626875  0.08456287  0.87930276    -0.46000
C657        C  0.90798716  0.06378178  0.87345556    -0.05200
C658        C  0.92692925  0.04157131  0.86796162    -0.22600
H659        H  0.98861835  0.01655763  0.86163343     0.19200
H660        H  0.98333797  0.11229013  0.88668952     0.18000
H661        H  0.05188374  0.10938015  0.88478552     0.14300
H662        H  0.91893893  0.02248846  0.86260095     0.14100
H663        H  0.05451663  0.02775990  0.86350222     0.32300
H664        H  0.91837464  0.10378221  0.88403643     0.35100
C665        C  0.16957472  0.50159626  0.91687365     0.20700
C666        C  0.16322767  0.50217022  0.92806745    -0.39200
C667        C  0.16310166  0.53263731  0.93287939     0.19600
C668        C  0.16905655  0.56049049  0.92703887     0.22300
C669        C  0.17502258  0.55995648  0.91578202    -0.39700
C670        C  0.17502925  0.52939238  0.91093374     0.21100
N671        N  0.16959177  0.47573478  0.91036416    -0.33000
C672        C  0.17486610  0.48703420  0.90017503    -0.10500
C673        C  0.17840326  0.52040982  0.90018022    -0.29400
N674        N  0.16629239  0.58642544  0.93348814    -0.46000
C675        C  0.15800007  0.57488984  0.94344051    -0.05200
C676        C  0.15588509  0.54147995  0.94335714    -0.22600
H677        H  0.15805030  0.48051935  0.93265098     0.19200
H678        H  0.17873592  0.58172739  0.91111349     0.18000
H679        H  0.18174942  0.53602979  0.89322229     0.14300
H680        H  0.14903887  0.52570767  0.94995868     0.14100
H681        H  0.16502847  0.45195189  0.91265407     0.32300
H682        H  0.16834461  0.61047315  0.93114193     0.35100
C683        C  0.15966552  0.78235093  0.97282766     0.20700
C684        C  0.15129057  0.75422322  0.97855363    -0.39200
C685        C  0.15997317  0.72513167  0.97360413     0.19600
C686        C  0.17602483  0.72419448  0.96374785     0.22300
C687        C  0.18467008  0.75229797  0.95810363    -0.39700
C688        C  0.17578333  0.78131711  0.96299340     0.21100
N689        N  0.14952571  0.81233280  0.97486594    -0.33000
C690        C  0.15869043  0.83053685  0.96620236    -0.10500
C691        C  0.17574888  0.81193998  0.95872524    -0.29400
N692        N  0.17672424  0.69406718  0.95983910    -0.46000
C693        C  0.16049639  0.67549778  0.96713090    -0.05200
C694        C  0.15030246  0.69408048  0.97594664    -0.22600
H695        H  0.13684448  0.75486000  0.98587948     0.19200
H696        H  0.19527923  0.75153273  0.95006343     0.18000
H697        H  0.18400843  0.81869733  0.95069739     0.14300
H698        H  0.13467924  0.68646748  0.98252825     0.14100
H699        H  0.13472831  0.81942070  0.98128599     0.32300
H700        H  0.18479913  0.68759641  0.95211576     0.35100
C701        C  0.16981310  0.00691727  0.91699873     0.20700
C702        C  0.16041252  0.00560576  0.92795389    -0.39200
C703        C  0.15961137  0.97494246  0.93266062     0.19600
C704        C  0.16812650  0.94766269  0.92696889     0.22300
C705        C  0.17733566  0.94892415  0.91595771    -0.39700
C706        C  0.17756572  0.97960178  0.91117406     0.21100
N707        N  0.16972061  0.03280939  0.91049049    -0.33000
C708        C  0.17677529  0.02194960  0.90038941    -0.10500
C709        C  0.18206425  0.98888789  0.90047704    -0.29400
N710        N  0.16425306  0.92135017  0.93321871    -0.46000
C711        C  0.15270325  0.93192987  0.94290665    -0.05200
C712        C  0.14952139  0.96525523  0.94283214    -0.22600
H713        H  0.15312593  0.02679846  0.93237877     0.19200
H714        H  0.18279038  0.92749401  0.91135743     0.18000
H715        H  0.18672527  0.97351112  0.89356582     0.14300
H716        H  0.14067190  0.98045178  0.94927671     0.14100
H717        H  0.16316850  0.05611300  0.91265164     0.32300
H718        H  0.16819813  0.89759367  0.93089179     0.35100
C719        C  0.95258375  0.91050346  0.96058291     0.20700
C720        C  0.98060475  0.92775084  0.96351783    -0.39200
C721        C  0.00990453  0.91213453  0.96146996     0.19600
C722        C  0.01085968  0.88168634  0.95696680     0.22300
C723        C  0.98310327  0.86464084  0.95404477    -0.39700
C724        C  0.95412597  0.88019688  0.95600830     0.21100
N725        N  0.92171289  0.91865873  0.96233186    -0.33000
C726        C  0.90384275  0.89302822  0.95897555    -0.10500
C727        C  0.92331428  0.86890008  0.95484579    -0.29400
N728        N  0.04108990  0.87125621  0.95624285    -0.46000
C729        C  0.05996414  0.89513170  0.96024017    -0.05200
C730        C  0.04144238  0.92124001  0.96355697    -0.22600
H731        H  0.97965092  0.95118165  0.96730852     0.19200
H732        H  0.98398745  0.84057169  0.95073552     0.18000
H733        H  0.91604243  0.84543923  0.95189690     0.14300
H734        H  0.04979057  0.94328721  0.96732164     0.14100
H735        H  0.91347795  0.93935883  0.96618864     0.32300
H736        H  0.04834890  0.84902933  0.95322308     0.35100
C737        C  0.79985322  0.99841821  0.91638521     0.20700
C738        C  0.80500191  0.99853564  0.92765997    -0.39200
C739        C  0.80505990  0.96833720  0.93269296     0.19600
C740        C  0.80000611  0.94013045  0.92696075     0.22300
C741        C  0.79521168  0.93998042  0.91563252    -0.39700
C742        C  0.79544549  0.97024671  0.91056735     0.21100
N743        N  0.80017552  0.02391299  0.90970340    -0.33000
C744        C  0.79625914  0.01201140  0.89952884    -0.10500
C745        C  0.79324826  0.97859005  0.89970870    -0.29400
N746        N  0.80259464  0.91456860  0.93358851    -0.46000
C747        C  0.80995103  0.92661291  0.94355521    -0.05200
C748        C  0.81154666  0.96005922  0.94331159    -0.22600
H749        H  0.80945303  0.02050475  0.93214391     0.19200
H750        H  0.79227748  0.91791163  0.91107154     0.18000
H751        H  0.79078788  0.96256856  0.89281976     0.14300
H752        H  0.81759188  0.97613722  0.94992980     0.14100
H753        H  0.80406505  0.04788729  0.91188927     0.32300
H754        H  0.80112284  0.89040072  0.93134842     0.35100
C755        C  0.95733039  0.58919656  0.95648496     0.20700
C756        C  0.98526791  0.57236976  0.95927588    -0.39200
C757        C  0.01445999  0.58891811  0.95757686     0.19600
C758        C  0.01557544  0.61980378  0.95340924     0.22300
C759        C  0.98779625  0.63641350  0.95050362    -0.39700
C760        C  0.95874935  0.61999175  0.95225122     0.21100
N761        N  0.92666984  0.58048343  0.95853077    -0.33000
C762        C  0.90865274  0.60619062  0.95576828    -0.10500
C763        C  0.92784155  0.63101879  0.95163687    -0.29400
N764        N  0.04566502  0.63158924  0.95360247    -0.46000
C765        C  0.06402020  0.60817015  0.95795566    -0.05200
C766        C  0.04550877  0.58094485  0.96039405    -0.22600
H767        H  0.98427391  0.54882921  0.96300559     0.19200
H768        H  0.98865035  0.66102404  0.94766478     0.18000
H769        H  0.92045355  0.65480625  0.94920270     0.14300
H770        H  0.05331880  0.55914703  0.96434349     0.14100
H771        H  0.91880367  0.55943519  0.96236635     0.32300
H772        H  0.05300026  0.65459654  0.95121053     0.35100
C773        C  0.79546697  0.71830052  0.96347010     0.20700
C774        C  0.78443758  0.74630794  0.95838455    -0.39200
C775        C  0.79244445  0.77542946  0.96351018     0.19600
C776        C  0.81011900  0.77667080  0.97302017     0.22300
C777        C  0.82110112  0.74861288  0.97815270    -0.39700
C778        C  0.81311297  0.71942537  0.97299357     0.21100
N779        N  0.79486276  0.68835675  0.95934340    -0.33000
C780        C  0.81257084  0.67003572  0.96619037    -0.10500
C781        C  0.82395971  0.68868092  0.97488790    -0.29400
N782        N  0.81881426  0.80718601  0.97528133    -0.46000
C783        C  0.80724757  0.82556695  0.96704981    -0.05200
C784        C  0.78999563  0.80644231  0.95968351    -0.22600
H785        H  0.77238767  0.74559651  0.95058665     0.19200
H786        H  0.83658835  0.74955461  0.98521967     0.18000
H787        H  0.84059855  0.68133249  0.98115578     0.14300
H788        H  0.78026553  0.81331990  0.95188479     0.14100
H789        H  0.78538424  0.68181742  0.95179834     0.32300
H790        H  0.83447218  0.81467698  0.98144014     0.35100
C791        C  0.80959083  0.52699587  0.93208024     0.20700
C792        C  0.81194434  0.49570638  0.92797302    -0.39200
C793        C  0.80329961  0.49174349  0.91704468     0.19600
C794        C  0.79346775  0.51710075  0.91061302     0.22300
C795        C  0.79095784  0.54849863  0.91475440    -0.39700
C796        C  0.79922824  0.55239899  0.92577756     0.21100
N797        N  0.81805302  0.53706787  0.94204610    -0.33000
C798        C  0.81307888  0.56917528  0.94220826    -0.10500
C799        C  0.80097936  0.57963788  0.93221078    -0.29400
N800        N  0.78871714  0.50727766  0.90029422    -0.46000
C801        C  0.79540120  0.47545028  0.90022419    -0.05200
C802        C  0.80439662  0.46489942  0.91053210    -0.22600
H803        H  0.82056588  0.47599294  0.93287573     0.19200
H804        H  0.78375799  0.56849137  0.90971644     0.18000
H805        H  0.79582251  0.60404063  0.92979238     0.14300
H806        H  0.81232203  0.44115226  0.91281676     0.14100
H807        H  0.82725458  0.52285153  0.94827699     0.32300
H808        H  0.78240486  0.52150686  0.89364656     0.35100
C809        C  0.68328791  0.42897157  0.81739014     0.20700
C810        C  0.68308808  0.43594184  0.82857133    -0.39200
C811        C  0.71305837  0.43515755  0.83378500     0.19600
C812        C  0.74111801  0.42820870  0.82824235     0.22300
C813        C  0.74124231  0.42065749  0.81709340    -0.39700
C814        C  0.71119735  0.42119583  0.81189976     0.21100
N815        N  0.65781029  0.42732261  0.81070118    -0.33000
C816        C  0.66937597  0.41802565  0.80088630    -0.10500
C817        C  0.70263755  0.41384021  0.80132513    -0.29400
N818        N  0.76624171  0.42791632  0.83510271    -0.46000
C819        C  0.75408343  0.43417059  0.84511456    -0.05200
C820        C  0.72096121  0.43889839  0.84462764    -0.22600
H821        H  0.66110596  0.44105038  0.83292876     0.19200
H822        H  0.76303725  0.41427099  0.81282843     0.18000
H823        H  0.71837182  0.40603197  0.79485075     0.14300
H824        H  0.70471982  0.44321382  0.85134321     0.14100
H825        H  0.63382009  0.43103951  0.81282036     0.32300
H826        H  0.78997960  0.42221837  0.83318367     0.35100
C827        C  0.45865254  0.43695169  0.78240917     0.20700
C828        C  0.48720135  0.44646421  0.78774090    -0.39200
C829        C  0.51619705  0.43796442  0.78259697     0.19600
C830        C  0.51665680  0.42135029  0.77286331     0.22300
C831        C  0.48818946  0.41206681  0.76750779    -0.39700
C832        C  0.45927735  0.42043346  0.77265902     0.21100
N833        N  0.42837120  0.43820654  0.78633440    -0.33000
C834        C  0.40944878  0.42202091  0.77909867    -0.10500
C835        C  0.42806905  0.41102882  0.77039849    -0.29400
N836        N  0.54671915  0.41205359  0.77043962    -0.46000
C837        C  0.56587857  0.42236967  0.77869530    -0.05200
C838        C  0.54753955  0.43912960  0.78638113    -0.22600
H839        H  0.48686662  0.45781927  0.79566076     0.19200
H840        H  0.48852814  0.39752275  0.76021151     0.18000
H841        H  0.42017883  0.39566272  0.76379902     0.14300
H842        H  0.55516699  0.44793624  0.79424998     0.14100
H843        H  0.42177661  0.44728973  0.79391516     0.32300
H844        H  0.55339282  0.39705158  0.76402981     0.35100
C845        C  0.26611741  0.42881450  0.81293349     0.20700
C846        C  0.23479096  0.43110485  0.81716526    -0.39200
C847        C  0.23251451  0.43684670  0.82841616     0.19600
C848        C  0.25938450  0.43962045  0.83499172     0.22300
C849        C  0.29071797  0.43763152  0.83074022    -0.39700
C850        C  0.29299717  0.43240903  0.81945638     0.21100
N851        N  0.27470177  0.42222660  0.80260187    -0.33000
C852        C  0.30732804  0.42207473  0.80247320    -0.10500
C853        C  0.31956729  0.42848289  0.81285057    -0.29400
N854        N  0.25074599  0.44271378  0.84551024    -0.46000
C855        C  0.21812440  0.44212533  0.84563917    -0.05200
C856        C  0.20591975  0.43871907  0.83511391    -0.22600
H857        H  0.21370962  0.42803921  0.81210325     0.19200
H858        H  0.31178559  0.43947667  0.83586991     0.18000
H859        H  0.34453295  0.42895432  0.81531581     0.14300
H860        H  0.18096561  0.43616151  0.83275453     0.14100
H861        H  0.25927695  0.41790242  0.79605605     0.32300
H862        H  0.26607960  0.44397033  0.85222457     0.35100
C863        C  0.34711317  0.22158812  0.79030471     0.20700
C864        C  0.36267223  0.24952782  0.79389691    -0.39200
C865        C  0.34792409  0.27838836  0.79114098     0.19600
C866        C  0.31959282  0.27965759  0.78527383     0.22300
C867        C  0.30370913  0.25143446  0.78172937    -0.39700
C868        C  0.31861524  0.22226648  0.78450313     0.21100
N869        N  0.35813793  0.19158027  0.79112122    -0.33000
C870        C  0.33667876  0.17261797  0.78583577    -0.10500
C871        C  0.31132985  0.19075642  0.78169683    -0.29400
N872        N  0.31254240  0.31040161  0.78280523    -0.46000
C873        C  0.33697227  0.32844403  0.78698740    -0.05200
C874        C  0.35910256  0.30924376  0.79236703    -0.22600
H875        H  0.38550429  0.24888319  0.79810368     0.19200
H876        H  0.28215977  0.25215988  0.77681380     0.18000
H877        H  0.29140638  0.18229554  0.77677955     0.14300
H878        H  0.38154705  0.31668386  0.79608538     0.14100
H879        H  0.37951554  0.18454059  0.79483361     0.32300
H880        H  0.29370116  0.31837236  0.77792362     0.35100
C881        C  0.29195450  0.07229573  0.81963828     0.20700
C882        C  0.29198441  0.06624202  0.83089268    -0.39200
C883        C  0.26160324  0.06516879  0.83588189     0.19600
C884        C  0.23352595  0.06966329  0.83005716     0.22300
C885        C  0.23356078  0.07617443  0.81888527    -0.39700
C886        C  0.26380899  0.07737730  0.81392981     0.21100
N887        N  0.31752372  0.07502916  0.81299783    -0.33000
C888        C  0.30545128  0.08219910  0.80303721    -0.10500
C889        C  0.27206373  0.08396351  0.80332624    -0.29400
N890        N  0.20789596  0.06879330  0.83665474    -0.46000
C891        C  0.21959826  0.06415852  0.84679344    -0.05200
C892        C  0.25302598  0.06164302  0.84667871    -0.22600
H893        H  0.31399333  0.06307069  0.83543904     0.19200
H894        H  0.21163073  0.08047872  0.81440857     0.18000
H895        H  0.25593890  0.08939990  0.79669386     0.14300
H896        H  0.26891206  0.05911004  0.85358733     0.14100
H897        H  0.34167270  0.07304812  0.81518435     0.32300
H898        H  0.18400400  0.07277189  0.83446458     0.35100
C899        C  0.45510560  0.07770264  0.77341403     0.20700
C900        C  0.48326232  0.08757485  0.76802641    -0.39200
C901        C  0.51225852  0.07775279  0.77271448     0.19600
C902        C  0.51324777  0.05905111  0.78200848     0.22300
C903        C  0.48495778  0.04870571  0.78731886    -0.39700
C904        C  0.45587281  0.05903157  0.78271420     0.21100
N905        N  0.42523428  0.08829582  0.77154360    -0.33000
C906        C  0.40662566  0.07706395  0.77979877    -0.10500
C907        C  0.42492093  0.05801938  0.78683616    -0.29400
N908        N  0.54351482  0.05760159  0.78586017    -0.46000
C909        C  0.56188609  0.07607240  0.77909548    -0.05200
C910        C  0.54314391  0.08837443  0.77067694    -0.22600
H911        H  0.48269602  0.10394723  0.76118878     0.19200
H912        H  0.48562287  0.03582085  0.79496463     0.18000
H913        H  0.41761542  0.04723176  0.79445833     0.14300
H914        H  0.55055859  0.10573728  0.76459240     0.14100
H915        H  0.41838536  0.10447227  0.76549589     0.32300
H916        H  0.55023925  0.04728102  0.79323764     0.35100
C917        C  0.62032021  0.21972321  0.79287295     0.20700
C918        C  0.60380222  0.24787662  0.79539667    -0.39200
C919        C  0.61925862  0.27658418  0.79245622     0.19600
C920        C  0.64916959  0.27739631  0.78751172     0.22300
C921        C  0.66597134  0.24913997  0.78512174    -0.39700
C922        C  0.65031620  0.22026766  0.78797362     0.21100
N923        N  0.60871573  0.18961445  0.79348772    -0.33000
C924        C  0.63130618  0.17073004  0.78888673    -0.10500
C925        C  0.65790258  0.18888586  0.78552999    -0.29400
N926        N  0.65693237  0.30756382  0.78447948    -0.46000
C927        C  0.63146493  0.32581030  0.78734874    -0.05200
C928        C  0.60777221  0.30735030  0.79248364    -0.22600
H929        H  0.57975379  0.24739524  0.79877027     0.19200
H930        H  0.68864864  0.24953294  0.78079647     0.18000
H931        H  0.67862613  0.18061084  0.78104289     0.14300
H932        H  0.58448215  0.31505690  0.79534442     0.14100
H933        H  0.58605949  0.18261894  0.79635642     0.32300
H934        H  0.67724313  0.31485422  0.78008908     0.35100
C935        C  0.70434112  0.06869358  0.81281622     0.20700
C936        C  0.73577060  0.06711258  0.81691820    -0.39200
C937        C  0.73834930  0.06154265  0.82814627     0.19600
C938        C  0.71165252  0.05838480  0.83481187     0.22300
C939        C  0.68021684  0.05963673  0.83068634    -0.39700
C940        C  0.67764353  0.06458580  0.81942236     0.21100
N941        N  0.69546090  0.07543995  0.80256157    -0.33000
C942        C  0.66288001  0.07517631  0.80259238    -0.10500
C943        C  0.65087705  0.06827018  0.81295060    -0.29400
N944        N  0.72053650  0.05555760  0.84528629    -0.46000
C945        C  0.75312002  0.05654068  0.84527442    -0.05200
C946        C  0.76510567  0.06011609  0.83473068    -0.22600
H947        H  0.75667029  0.07061812  0.81178397     0.19200
H948        H  0.65930122  0.05752132  0.83589242     0.18000
H949        H  0.62597611  0.06773954  0.81551061     0.14300
H950        H  0.78997590  0.06298178  0.83228750     0.14100
H951        H  0.71064165  0.08046670  0.79599530     0.32300
H952        H  0.70538525  0.05406217  0.85205436     0.35100
C953        C  0.28634242  0.22455063  0.61606412     0.20700
C954        C  0.27589439  0.25211050  0.61051963    -0.39200
C955        C  0.28515729  0.28164987  0.61516355     0.19600
C956        C  0.30340411  0.28328614  0.62456915     0.22300
C957        C  0.31396196  0.25591348  0.63003354    -0.39700
C958        C  0.30470767  0.22660564  0.62543186     0.21100
N959        N  0.28111502  0.19362324  0.61335652    -0.33000
C960        C  0.29634835  0.17618873  0.62107989    -0.10500
C961        C  0.31134016  0.19589653  0.62871564    -0.29400
N962        N  0.30959991  0.31380810  0.62729785    -0.46000
C963        C  0.29542261  0.33201902  0.61959840    -0.05200
C964        C  0.27979834  0.31292201  0.61185165    -0.22600
H965        H  0.26178911  0.25065970  0.60313890     0.19200
H966        H  0.32848373  0.25735699  0.63732397     0.18000
H967        H  0.32549462  0.18868857  0.63567015     0.14300
H968        H  0.26691685  0.32078845  0.60470156     0.14100
H969        H  0.26839627  0.18492972  0.60663298     0.32300
H970        H  0.32324321  0.32179105  0.63391824     0.35100
C971        C  0.51094962  0.07598657  0.61730626     0.20700
C972        C  0.48336332  0.08867114  0.61250942    -0.39200
C973        C  0.45410364  0.07661826  0.61645553     0.19600
C974        C  0.45224492  0.05363297  0.62458212     0.22300
C975        C  0.48000441  0.04094734  0.62943011    -0.39700
C976        C  0.50947234  0.05303697  0.62545337     0.21100
N977        N  0.54151093  0.08379650  0.61497102    -0.33000
C978        C  0.55987016  0.06570908  0.62162237    -0.10500
C979        C  0.54081822  0.04623228  0.62833980    -0.29400
N980        N  0.42131939  0.04720284  0.62712790    -0.46000
C981        C  0.40367539  0.06657588  0.62062730    -0.05200
C982        C  0.42327284  0.08500215  0.61382420    -0.22600
H983        H  0.48459606  0.10688037  0.60622982     0.19200
H984        H  0.47875574  0.02324667  0.63587052     0.18000
H985        H  0.54879523  0.02955409  0.63450261     0.14300
H986        H  0.41592198  0.10289278  0.60796404     0.14100
H987        H  0.54942621  0.10059252  0.60921968     0.32300
H988        H  0.41280688  0.03151235  0.63313061     0.35100
C989        C  0.51566997  0.42690926  0.61616703     0.20700
C990        C  0.48792111  0.41069359  0.61261779    -0.39200
C991        C  0.45873095  0.42338837  0.61619861     0.19600
C992        C  0.45719962  0.45016871  0.62284774     0.22300
C993        C  0.48505651  0.46635041  0.62645282    -0.39700
C994        C  0.51437707  0.45364279  0.62284611     0.21100
N995        N  0.54623059  0.41897190  0.61409725    -0.33000
C996        C  0.56470324  0.44052181  0.61956315    -0.10500
C997        C  0.54575100  0.46272807  0.62508104    -0.29400
N998        N  0.42641999  0.45747589  0.62503249    -0.46000
C999        C  0.40839649  0.43524671  0.61967572    -0.05200
C1000       C  0.42768392  0.41352108  0.61412800    -0.22600
H1001       H  0.48899618  0.38964795  0.60746585     0.19200
H1002       H  0.48398452  0.48716300  0.63170970     0.18000
H1003       H  0.55380657  0.48220753  0.63026581     0.14300
H1004       H  0.41998554  0.39333556  0.60919293     0.14100
H1005       H  0.55406694  0.39941887  0.60951351     0.32300
H1006       H  0.41817752  0.47647110  0.62979364     0.35100
C1007       C  0.68544098  0.28247246  0.61891739     0.20700
C1008       C  0.69868198  0.25441788  0.61441944    -0.39200
C1009       C  0.68560127  0.22517284  0.61823995     0.19600
C1010       C  0.66125299  0.22420729  0.62592573     0.22300
C1011       C  0.64823084  0.25206502  0.63044101    -0.39700
C1012       C  0.66122134  0.28109069  0.62664050     0.21100
N1013       N  0.69250651  0.31326642  0.61637741    -0.33000
C1014       C  0.67246903  0.33134693  0.62252410    -0.10500
C1015       C  0.65280559  0.31209920  0.62904871    -0.29400
N1016       N  0.65216382  0.19385332  0.62801246    -0.46000
C1017       C  0.67081505  0.17505488  0.62167907    -0.05200
C1018       C  0.69210365  0.19365100  0.61544536    -0.22600
H1019       H  0.71736600  0.25529719  0.60828972     0.19200
H1020       H  0.62894713  0.25120143  0.63635790     0.18000
H1021       H  0.63418775  0.31978764  0.63459966     0.14300
H1022       H  0.70953193  0.18529875  0.60957649     0.14100
H1023       H  0.70927686  0.32143492  0.61065561     0.32300
H1024       H  0.63411671  0.18635318  0.63338757     0.35100
C1025       C  0.20300839  0.08960709  0.74480487     0.20700
C1026       C  0.21125521  0.09058438  0.75587481    -0.39200
C1027       C  0.24422612  0.08927645  0.75822461     0.19600
C1028       C  0.26736540  0.08683603  0.75018586     0.22300
C1029       C  0.25914632  0.08627746  0.73906770    -0.39700
C1030       C  0.22606311  0.08794672  0.73670515     0.21100
N1031       N  0.17331585  0.09104313  0.74050538    -0.33000
C1032       C  0.17729763  0.09072841  0.72955544    -0.10500
C1033       C  0.20993826  0.08894425  0.72687204    -0.29400
N1034       N  0.29704282  0.08673305  0.75459655    -0.46000
C1035       C  0.29272142  0.08969139  0.76551312    -0.05200
C1036       C  0.26005814  0.09119712  0.76804726    -0.22600
H1037       H  0.19329710  0.09266769  0.76220638     0.19200
H1038       H  0.27717270  0.08509391  0.73272773     0.18000
H1039       H  0.22046930  0.08848540  0.71882309     0.14300
H1040       H  0.24924258  0.09390874  0.77599601     0.14100
H1041       H  0.15170059  0.09303635  0.74476888     0.32300
H1042       H  0.31887348  0.08602900  0.75040512     0.35100
C1043       C  0.23278321  0.06580718  0.66483093     0.20700
C1044       C  0.23325957  0.07159272  0.67606607    -0.39200
C1045       C  0.20321327  0.07302665  0.68117321     0.19600
C1046       C  0.17470629  0.06852842  0.67556954     0.22300
C1047       C  0.17417114  0.06302903  0.66424969    -0.39700
C1048       C  0.20439912  0.06204838  0.65908053     0.21100
N1049       N  0.25819275  0.06566326  0.65810235    -0.33000
C1050       C  0.24621642  0.06237312  0.64791925    -0.10500
C1051       C  0.21264778  0.05984390  0.64816967    -0.29400
N1052       N  0.14943579  0.07202642  0.68231892    -0.46000
C1053       C  0.16205829  0.07926054  0.69223211    -0.05200
C1054       C  0.19552097  0.08012095  0.69179939    -0.22600
H1055       H  0.25545983  0.07564283  0.68046401     0.19200
H1056       H  0.15190132  0.06061317  0.65976497     0.18000
H1057       H  0.19647286  0.05819389  0.64129688     0.14300
H1058       H  0.21206343  0.08564473  0.69833570     0.14100
H1059       H  0.28222785  0.06936631  0.66026452     0.32300
H1060       H  0.12513873  0.07079885  0.68021621     0.35100
C1061       C  0.76521928  0.09615863  0.74476057     0.20700
C1062       C  0.75724454  0.09459987  0.75588147    -0.39200
C1063       C  0.72428072  0.09624647  0.75836649     0.19600
C1064       C  0.70102678  0.09880698  0.75038173     0.22300
C1065       C  0.70902873  0.10068816  0.73928494    -0.39700
C1066       C  0.74197949  0.09939990  0.73681030     0.21100
N1067       N  0.79478190  0.09563358  0.74027443    -0.33000
C1068       C  0.79042179  0.09896680  0.72937318    -0.10500
C1069       C  0.75771906  0.10131555  0.72693928    -0.29400
N1070       N  0.67143756  0.09940033  0.75482529    -0.46000
C1071       C  0.67581300  0.09752526  0.76574599    -0.05200
C1072       C  0.70849674  0.09572923  0.76825877    -0.22600
H1073       H  0.77537108  0.09244310  0.76214240     0.04800
H1074       H  0.69092344  0.10313580  0.73303098     0.18000
H1075       H  0.74676847  0.10407437  0.71902239     0.14300
H1076       H  0.71927404  0.09383733  0.77623440     0.14100
H1077       H  0.81657537  0.09389927  0.74442882     0.32300
H1078       H  0.64964187  0.10140430  0.75068430     0.35100
C1079       C  0.95372877  0.06771831  0.71233926     0.20700
C1080       C  0.98166798  0.05747946  0.70699953    -0.39200
C1081       C  0.01090983  0.06444634  0.71222326     0.19600
C1082       C  0.01241094  0.08052763  0.72204187     0.22300
C1083       C  0.98435631  0.09084601  0.72741839    -0.39700
C1084       C  0.95496777  0.08383175  0.72216322     0.21100
N1085       N  0.92357085  0.06700441  0.70838789    -0.33000
C1086       C  0.90501821  0.08296031  0.71566768    -0.10500
C1087       C  0.92394568  0.09366606  0.72441700    -0.29400
N1088       N  0.04319388  0.08807939  0.72449103    -0.46000
C1089       C  0.06149658  0.07727845  0.71608729    -0.05200
C1090       C  0.04192547  0.06181036  0.70839483    -0.22600
H1091       H  0.98080081  0.04645248  0.69902961     0.19200
H1092       H  0.98542625  0.10487987  0.73482331     0.18000
H1093       H  0.91640040  0.10874986  0.73109988     0.14300
H1094       H  0.04858169  0.05294523  0.70045474     0.14100
H1095       H  0.91689577  0.05828509  0.70075384     0.32300
H1096       H  0.05101544  0.10235163  0.73097691     0.35100
C1097       C  0.76084457  0.07070439  0.68237285     0.20700
C1098       C  0.72951315  0.07094761  0.67811951    -0.39200
C1099       C  0.72660210  0.06334290  0.66702894     0.19600
C1100       C  0.75292034  0.05610257  0.66061594     0.22300
C1101       C  0.78424933  0.05526970  0.66492815    -0.39700
C1102       C  0.78714754  0.06280472  0.67605578     0.21100
N1103       N  0.77017616  0.07999586  0.69238261    -0.33000
C1104       C  0.80270224  0.07792947  0.69253284    -0.10500
C1105       C  0.81412016  0.06689971  0.68250264    -0.29400
N1106       N  0.74419465  0.05343470  0.65008722    -0.46000
C1107       C  0.71212541  0.05909237  0.64980998    -0.05200
C1108       C  0.70027292  0.06487895  0.66024492    -0.22600
H1109       H  0.70905065  0.07802420  0.68297313     0.19200
H1110       H  0.80500766  0.05052824  0.65988461     0.18000
H1111       H  0.83892351  0.06414125  0.68004317     0.14300
H1112       H  0.67609479  0.07170816  0.66245358     0.14100
H1113       H  0.75528036  0.08803197  0.69863541     0.32300
H1114       H  0.75938118  0.04975122  0.64344011     0.35100
C1115       C  0.20624994  0.41193438  0.74365852     0.20700
C1116       C  0.21417788  0.41436168  0.75475803    -0.39200
C1117       C  0.24704179  0.41207715  0.75730304     0.19600
C1118       C  0.27034825  0.40828583  0.74938139     0.22300
C1119       C  0.26239466  0.40557499  0.73828519    -0.39700
C1120       C  0.22945887  0.40732620  0.73576235     0.21100
N1121       N  0.17667386  0.41223807  0.73918960    -0.33000
C1122       C  0.18090970  0.40733160  0.72835737    -0.10500
C1123       C  0.21360531  0.40420433  0.72593879    -0.29400
N1124       N  0.29974772  0.40631045  0.75392766    -0.46000
C1125       C  0.29511958  0.40827180  0.76485049    -0.05200
C1126       C  0.26252578  0.41187578  0.76724689    -0.22600
H1127       H  0.19601413  0.41720046  0.76098477     0.19200
H1128       H  0.28046604  0.40178733  0.73208798     0.18000
H1129       H  0.22443872  0.40000178  0.71807001     0.14300
H1130       H  0.25158129  0.41384133  0.77520413     0.14100
H1131       H  0.15489725  0.41465569  0.74332684     0.32300
H1132       H  0.32149670  0.40275764  0.74987204     0.35100
C1133       C  0.15096281  0.27841727  0.70863455     0.20700
C1134       C  0.16757468  0.25047713  0.71164668    -0.39200
C1135       C  0.15172028  0.22118968  0.70937583     0.19600
C1136       C  0.12172352  0.22014348  0.70450717     0.22300
C1137       C  0.10535753  0.24781969  0.70146041    -0.39700
C1138       C  0.12105135  0.27680645  0.70373574     0.21100
N1139       N  0.15918580  0.30921840  0.71071303    -0.33000
C1140       C  0.13398165  0.32695393  0.70724240    -0.10500
C1141       C  0.11004319  0.30750271  0.70273156    -0.29400
N1142       N  0.11031187  0.19004505  0.70406399    -0.46000
C1143       C  0.13296088  0.17145967  0.70871740    -0.05200
C1144       C  0.15949053  0.18987541  0.71200497    -0.22600
H1145       H  0.19046291  0.25148643  0.71581577     0.19200
H1146       H  0.08144320  0.24687420  0.69800178     0.18000
H1147       H  0.08689913  0.31468675  0.69959920     0.14300
H1148       H  0.18051999  0.18175608  0.71634514     0.14100
H1149       H  0.17962475  0.31745696  0.71482374     0.32300
H1150       H  0.08791245  0.18278295  0.70105751     0.35100
C1151       C  0.18264766  0.43269217  0.67477227     0.20700
C1152       C  0.18253460  0.44091599  0.66368532    -0.39200
C1153       C  0.21275935  0.44239054  0.65861514     0.19600
C1154       C  0.24093688  0.43641303  0.66420932     0.22300
C1155       C  0.24101017  0.42782495  0.67526313    -0.39700
C1156       C  0.21076049  0.42605498  0.68030135     0.21100
N1157       N  0.15703822  0.42884336  0.68133234    -0.33000
C1158       C  0.16883409  0.41936509  0.69109677    -0.10500
C1159       C  0.20228530  0.41723822  0.69075114    -0.29400
N1160       N  0.26628112  0.43752281  0.65743601    -0.46000
C1161       C  0.25417234  0.44364210  0.64741931    -0.05200
C1162       C  0.22087141  0.44708054  0.64782841    -0.22600
H1163       H  0.16047131  0.44510982  0.65927281     0.19200
H1164       H  0.26294700  0.42218065  0.67955358     0.18000
H1165       H  0.21826732  0.41015698  0.69724126     0.14300
H1166       H  0.20465294  0.45068772  0.64106817     0.14100
H1167       H  0.13294749  0.43162516  0.67918443     0.32300
H1168       H  0.29013198  0.43244096  0.65938644     0.35100
C1169       C  0.74827818  0.40327473  0.73549609     0.20700
C1170       C  0.71475538  0.40344987  0.73705680    -0.39200
C1171       C  0.70419356  0.40169278  0.74791588     0.19600
C1172       C  0.72545617  0.39952769  0.75652164     0.22300
C1173       C  0.75895274  0.39963801  0.75496658    -0.39700
C1174       C  0.76951369  0.40178162  0.74412782     0.21100
N1175       N  0.76431365  0.40438145  0.72598839    -0.33000
C1176       C  0.79605156  0.40386451  0.72854179    -0.10500
C1177       C  0.80022102  0.40242230  0.73981543    -0.29400
N1178       N  0.70951631  0.39801063  0.76603275    -0.46000
C1179       C  0.67778692  0.39961478  0.76355231    -0.05200
C1180       C  0.67352442  0.40192482  0.75228863    -0.22600
H1181       H  0.69813265  0.40491753  0.73031112     0.19200
H1182       H  0.77557806  0.39822304  0.76171299     0.18000
H1183       H  0.82264109  0.40123225  0.74424702     0.14300
H1184       H  0.65107232  0.40343786  0.74788950     0.14100
H1185       H  0.75417651  0.40561657  0.71823585     0.32300
H1186       H  0.71978806  0.39672973  0.77376468     0.35100
C1187       C  0.81928688  0.28249612  0.70458941     0.20700
C1188       C  0.80123642  0.25464041  0.70716999    -0.39200
C1189       C  0.81671454  0.22513873  0.70534661     0.19600
C1190       C  0.84760135  0.22381705  0.70118698     0.22300
C1191       C  0.86532830  0.25140597  0.69850095    -0.39700
C1192       C  0.85009930  0.28060354  0.70041143     0.21100
N1193       N  0.81210547  0.31328494  0.70691537    -0.33000
C1194       C  0.83887400  0.33075437  0.70439633    -0.10500
C1195       C  0.86270823  0.31111920  0.70011571    -0.29400
N1196       N  0.85861644  0.19373439  0.70137751    -0.46000
C1197       C  0.83495099  0.17536294  0.70581636    -0.05200
C1198       C  0.80802896  0.19398774  0.70821024    -0.22600
H1199       H  0.77773154  0.25588175  0.71091846     0.19200
H1200       H  0.89005032  0.25025414  0.69578040     0.18000
H1201       H  0.88697095  0.31782620  0.69780670     0.14300
H1202       H  0.78621192  0.18629070  0.71229230     0.14100
H1203       H  0.79138962  0.32147081  0.71078667     0.32300
H1204       H  0.88158415  0.18652473  0.69904671     0.35100
C1205       C  0.95934297  0.43753327  0.71101417     0.20700
C1206       C  0.98766747  0.44745515  0.70563464    -0.39200
C1207       C  0.01677115  0.43814547  0.71048182     0.19600
C1208       C  0.01754545  0.42029478  0.71995825     0.22300
C1209       C  0.98927963  0.41027015  0.72530159    -0.39700
C1210       C  0.96023896  0.41962496  0.72047800     0.21100
N1211       N  0.92891425  0.43995730  0.70737187    -0.33000
C1212       C  0.91013625  0.42319523  0.71450732    -0.10500
C1213       C  0.92902506  0.41051025  0.72284733    -0.29400
N1214       N  0.04776520  0.41127737  0.72222072    -0.46000
C1215       C  0.06664313  0.42281591  0.71405712    -0.05200
C1216       C  0.04801194  0.44027157  0.70665363    -0.22600
H1217       H  0.98706405  0.46002754  0.69792935     0.19200
H1218       H  0.98984062  0.39484604  0.73238752     0.18000
H1219       H  0.92125372  0.39422492  0.72921546     0.14300
H1220       H  0.05540791  0.45052616  0.69895776     0.14100
H1221       H  0.92209193  0.45007625  0.69997140     0.32300
H1222       H  0.05478332  0.39580873  0.72845581     0.35100
C1223       C  0.76604404  0.43500139  0.68167262     0.20700
C1224       C  0.73461900  0.43563732  0.67753778    -0.39200
C1225       C  0.73192126  0.44214913  0.66637527     0.19600
C1226       C  0.75851775  0.44730884  0.65979737     0.22300
C1227       C  0.78995279  0.44695417  0.66395673    -0.39700
C1228       C  0.79262515  0.44083062  0.67515469     0.21100
N1229       N  0.77509448  0.42709594  0.69181499    -0.33000
C1230       C  0.80767562  0.42814355  0.69179905    -0.10500
C1231       C  0.81947526  0.43692248  0.68156998    -0.29400
N1232       N  0.74965772  0.45008942  0.64931696    -0.46000
C1233       C  0.71720586  0.44668189  0.64923529    -0.05200
C1234       C  0.70526310  0.44201970  0.65973134    -0.22600
H1235       H  0.71384645  0.43040786  0.68256983     0.19200
H1236       H  0.81083148  0.45023644  0.65879721     0.18000
H1237       H  0.84434771  0.43831931  0.67900683     0.14300
H1238       H  0.68062533  0.43707854  0.66208592     0.14100
H1239       H  0.76001931  0.42060771  0.69826548     0.32300
H1240       H  0.76484371  0.45255998  0.64258780     0.35100
C1241       C  0.29439978  0.50576334  0.57703871     0.20700
C1242       C  0.29898546  0.50632314  0.56572397    -0.39200
C1243       C  0.30455939  0.53668224  0.56111513     0.19600
C1244       C  0.30479427  0.56451723  0.56727036     0.22300
C1245       C  0.30048022  0.56396092  0.57861959    -0.39700
C1246       C  0.29550606  0.53346214  0.58326755     0.21100
N1247       N  0.29204036  0.47963556  0.58341318    -0.33000
C1248       C  0.29237516  0.49058034  0.59379407    -0.10500
C1249       C  0.29411749  0.52409023  0.59404750    -0.29400
N1250       N  0.31146737  0.59017915  0.56097855    -0.46000
C1251       C  0.31608310  0.57848085  0.55079905    -0.05200
C1252       C  0.31208525  0.54522342  0.55056629    -0.22600
H1253       H  0.29944168  0.48455169  0.56091826     0.19200
H1254       H  0.30207538  0.58553367  0.58351033     0.18000
H1255       H  0.29640991  0.53933607  0.60114219     0.14300
H1256       H  0.31456767  0.52942391  0.54363802     0.14100
H1257       H  0.29253979  0.45570134  0.58087549     0.32300
H1258       H  0.31384019  0.61403105  0.56350542     0.35100
C1259       C  0.31148793  0.78510266  0.52100365     0.20700
C1260       C  0.32049152  0.75720749  0.51536918    -0.39200
C1261       C  0.31251849  0.72788680  0.52041728     0.19600
C1262       C  0.29659614  0.72649163  0.53029399     0.22300
C1263       C  0.28738349  0.75434710  0.53586568    -0.39700
C1264       C  0.29549629  0.78360676  0.53085967     0.21100
N1265       N  0.32102631  0.81543701  0.51887703    -0.33000
C1266       C  0.31157238  0.83344029  0.52749886    -0.10500
C1267       C  0.29499365  0.81427977  0.53504767    -0.29400
N1268       N  0.29646600  0.69640231  0.53425895    -0.46000
C1269       C  0.31288889  0.67832856  0.52696741    -0.05200
C1270       C  0.32271366  0.69718797  0.51812070    -0.22600
H1271       H  0.33484995  0.75827954  0.50802579     0.19200
H1272       H  0.27689193  0.75333556  0.54392389     0.18000
H1273       H  0.28699709  0.82074269  0.54311704     0.14300
H1274       H  0.33833200  0.69006278  0.51151866     0.14100
H1275       H  0.33585290  0.82292484  0.51247300     0.32300
H1276       H  0.28851338  0.68973246  0.54199536     0.35100
C1277       C  0.31126247  0.97486937  0.56144584     0.20700
C1278       C  0.31130559  0.00618815  0.56563276    -0.39200
C1279       C  0.30180653  0.00910816  0.57652969     0.19600
C1280       C  0.29319994  0.98280233  0.58282697     0.22300
C1281       C  0.29279262  0.95146859  0.57859471    -0.39700
C1282       C  0.30203447  0.94859198  0.56764783     0.21100
N1283       N  0.32077123  0.96565468  0.55148811    -0.33000
C1284       C  0.31736411  0.93327079  0.55127595    -0.10500
C1285       C  0.30553438  0.92175208  0.56120560    -0.29400
N1286       N  0.28782298  0.99171970  0.59318231    -0.46000
C1287       C  0.29289871  0.02391594  0.59343424    -0.05200
C1288       C  0.30138621  0.03565739  0.58319195    -0.22600
H1289       H  0.31900310  0.02668757  0.56084071     0.19200
H1290       H  0.28654794  0.93079268  0.58353219     0.18000
H1291       H  0.30110869  0.89701828  0.56352319     0.14300
H1292       H  0.30837661  0.05998822  0.58107747     0.14100
H1293       H  0.32913493  0.98055987  0.54524926     0.32300
H1294       H  0.28240996  0.97669999  0.59975643     0.35100
C1295       C  0.51784786  0.62374277  0.53829467     0.20700
C1296       C  0.49038811  0.64064791  0.54138373    -0.39200
C1297       C  0.46098726  0.62607278  0.53873451     0.19600
C1298       C  0.45896438  0.59679641  0.53343148     0.22300
C1299       C  0.48657319  0.57988136  0.53028931    -0.39700
C1300       C  0.51614937  0.59446295  0.53298074     0.21100
N1301       N  0.54844798  0.63344299  0.53942937    -0.33000
C1302       C  0.56662452  0.61026417  0.53484206    -0.10500
C1303       C  0.54739007  0.58534766  0.53077741    -0.29400
N1304       N  0.42808989  0.58906764  0.53134075    -0.46000
C1305       C  0.41053894  0.61387434  0.53519501    -0.05200
C1306       C  0.43023985  0.63726649  0.53993069    -0.22600
H1307       H  0.49183353  0.66388158  0.54531549     0.19200
H1308       H  0.48513169  0.55740158  0.52588896     0.18000
H1309       H  0.55511108  0.56431916  0.52635114     0.14300
H1310       H  0.42311692  0.65999505  0.54340798     0.14100
H1311       H  0.55642473  0.65491770  0.54295247     0.32300
H1312       H  0.41962642  0.56907853  0.52703374     0.35100
C1313       C  0.66581009  0.53449064  0.56230098     0.20700
C1314       C  0.66841773  0.50317867  0.56638862    -0.39200
C1315       C  0.67625863  0.50074185  0.57745196     0.19600
C1316       C  0.68066110  0.52745251  0.58401528     0.22300
C1317       C  0.67860968  0.55882184  0.57987856    -0.39700
C1318       C  0.67123245  0.56122981  0.56875962     0.21100
N1319       N  0.65740579  0.54318616  0.55216579    -0.33000
C1320       C  0.65802945  0.57572278  0.55210171    -0.10500
C1321       C  0.66662357  0.58783830  0.56230605    -0.29400
N1322       N  0.68415333  0.51863435  0.59448042    -0.46000
C1323       C  0.68209320  0.48609799  0.59453311    -0.05200
C1324       C  0.67771518  0.47409689  0.58405157    -0.22600
H1325       H  0.66376068  0.48223349  0.56139666     0.19200
H1326       H  0.68164017  0.57978993  0.58499528     0.18000
H1327       H  0.66853399  0.61276753  0.56473690     0.14300
H1328       H  0.67328051  0.44938005  0.58171877     0.14100
H1329       H  0.65187683  0.52791329  0.54568163     0.32300
H1330       H  0.68590739  0.53381856  0.60122417     0.35100
C1331       C  0.51732276  0.88512721  0.53819578     0.20700
C1332       C  0.48909437  0.86865347  0.54106945    -0.39200
C1333       C  0.46042629  0.88418721  0.53853906     0.19600
C1334       C  0.45969514  0.91393875  0.53352505     0.22300
C1335       C  0.48810258  0.93049464  0.53062312    -0.39700
C1336       C  0.51697760  0.91494141  0.53320774     0.21100
N1337       N  0.54743572  0.87442102  0.53916951    -0.33000
C1338       C  0.56664452  0.89747549  0.53477533    -0.10500
C1339       C  0.54859389  0.92335186  0.53106135    -0.29400
N1340       N  0.42914630  0.92249761  0.53147855    -0.46000
C1341       C  0.41054803  0.89776149  0.53510465    -0.05200
C1342       C  0.42927112  0.87361861  0.53962648    -0.22600
H1343       H  0.48942132  0.84501802  0.54473827     0.19200
H1344       H  0.48774979  0.95338138  0.52645015     0.18000
H1345       H  0.55726414  0.94455202  0.52683963     0.14300
H1346       H  0.42123254  0.85078678  0.54291229     0.14100
H1347       H  0.55437176  0.85237244  0.54242365     0.32300
H1348       H  0.42152372  0.94305121  0.52736061     0.35100
C1349       C  0.66507866  0.72427288  0.52224689     0.20700
C1350       C  0.65575477  0.75210000  0.51668867    -0.39200
C1351       C  0.66368265  0.78134966  0.52172573     0.19600
C1352       C  0.67977041  0.78286497  0.53155789     0.22300
C1353       C  0.68926575  0.75498739  0.53709341    -0.39700
C1354       C  0.68122567  0.72568620  0.53206741     0.21100
N1355       N  0.65584475  0.69397151  0.52002327    -0.33000
C1356       C  0.66547140  0.67582510  0.52856511    -0.10500
C1357       C  0.68209248  0.69484068  0.53614356    -0.29400
N1358       N  0.68014848  0.81311671  0.53542151    -0.46000
C1359       C  0.66373412  0.83100699  0.52807209    -0.05200
C1360       C  0.65367087  0.81195245  0.51933604    -0.22600
H1361       H  0.64133720  0.75101412  0.50936931     0.19200
H1362       H  0.70004472  0.75599126  0.54509984     0.18000
H1363       H  0.69042632  0.68811215  0.54414293     0.14300
H1364       H  0.63817008  0.81899900  0.51270216     0.14100
H1365       H  0.64105707  0.68655814  0.51361263     0.32300
H1366       H  0.68851415  0.82014759  0.54306665     0.35100
C1367       C  0.66984433  0.94701288  0.56763368     0.20700
C1368       C  0.67592018  0.94730806  0.57888053    -0.39200
C1369       C  0.67653350  0.97772682  0.58382206     0.19600
C1370       C  0.67179603  0.00567297  0.57795751     0.22300
C1371       C  0.66531320  0.00533033  0.56675148    -0.39700
C1372       C  0.66433919  0.97493049  0.56184907     0.21100
N1373       N  0.66682295  0.92118572  0.56113770    -0.33000
C1374       C  0.65889420  0.93270592  0.55117937    -0.10500
C1375       C  0.65703491  0.96614102  0.55132032    -0.29400
N1376       N  0.67163336  0.03128477  0.58459509    -0.46000
C1377       C  0.67563089  0.01963733  0.59479687    -0.05200
C1378       C  0.67905162  0.98631211  0.59465125    -0.22600
H1379       H  0.67907043  0.92541502  0.58349032     0.19200
H1380       H  0.66048945  0.02708576  0.56224230     0.18000
H1381       H  0.65077907  0.98191346  0.54467755     0.14300
H1382       H  0.68126273  0.97039577  0.60156774     0.14100
H1383       H  0.66884298  0.89714536  0.56344285     0.32300
H1384       H  0.66710135  0.05504699  0.58239239     0.35100
C1385       C  0.14132275  0.97026873  0.99474557     0.20700
C1386       C  0.14050191  0.97896781  0.00577271    -0.39200
C1387       C  0.14066853  0.01208363  0.00789986     0.19600
C1388       C  0.14191294  0.03481245  0.99968608     0.22300
C1389       C  0.14217095  0.02611978  0.98865204    -0.39700
C1390       C  0.14167331  0.99300011  0.98652504     0.21100
N1391       N  0.14105223  0.94040454  0.99058089    -0.33000
C1392       C  0.14067790  0.94417187  0.97962678    -0.10500
C1393       C  0.14102545  0.97662519  0.97679663    -0.29400
N1394       N  0.14255638  0.06466303  0.00386216    -0.46000
C1395       C  0.14135337  0.06090048  0.01481800    -0.05200
C1396       C  0.13996667  0.02844739  0.01763089    -0.22600
H1397       H  0.13973358  0.96126604  0.01222091     0.19200
H1398       H  0.14265155  0.04382089  0.98220090     0.18000
H1399       H  0.14070578  0.98691337  0.96872366     0.14300
H1400       H  0.13904856  0.01814313  0.02570485     0.14100
H1401       H  0.14014800  0.91883580  0.99491742     0.32300
H1402       H  0.14327989  0.08622699  0.99952107     0.35100
C1403       C  0.83100382  0.98674549  0.98759786     0.20700
C1404       C  0.83191287  0.02016673  0.98911012    -0.39200
C1405       C  0.83341112  0.03064486  0.99995030     0.19600
C1406       C  0.83445774  0.00948166  0.00862177     0.22300
C1407       C  0.83321110  0.97602691  0.00711259    -0.39700
C1408       C  0.83120144  0.96553793  0.99626810     0.21100
N1409       N  0.82971753  0.97078085  0.97810159    -0.33000
C1410       C  0.82865736  0.93913406  0.98071816    -0.10500
C1411       C  0.82943170  0.93492630  0.99198867    -0.29400
N1412       N  0.83606063  0.02555196  0.01810669    -0.46000
C1413       C  0.83554028  0.05719457  0.01546620    -0.05200
C1414       C  0.83387930  0.06126396  0.00420442    -0.22600
H1415       H  0.83134916  0.03679686  0.98234425     0.19200
H1416       H  0.83363024  0.95940052  0.01388061     0.18000
H1417       H  0.82948374  0.91249636  0.99643809     0.14300
H1418       H  0.83320101  0.08361996  0.99972218     0.14100
H1419       H  0.82935469  0.98087709  0.97032670     0.32300
H1420       H  0.83667937  0.01554667  0.02589258     0.35100
C1421       C  0.95903202  0.09085383  0.03797651     0.20700
C1422       C  0.98726696  0.07342661  0.03602398    -0.39200
C1423       C  0.01626099  0.09090598  0.03700170     0.19600
C1424       C  0.01693088  0.12314931  0.03973139     0.22300
C1425       C  0.98892346  0.14030822  0.04187934    -0.39700
C1426       C  0.96012869  0.12295823  0.04086608     0.21100
N1427       N  0.92839323  0.08114593  0.03632320    -0.33000
C1428       C  0.91008109  0.10749046  0.03804303    -0.10500
C1429       C  0.92916564  0.13373660  0.04110609    -0.29400
N1430       N  0.04692381  0.13511184  0.03919006    -0.46000
C1431       C  0.06578294  0.11038051  0.03610089    -0.05200
C1432       C  0.04754153  0.08226569  0.03476694    -0.22600
H1433       H  0.98665678  0.04858667  0.03343327     0.19200
H1434       H  0.98941972  0.16577496  0.04365632     0.18000
H1435       H  0.92175621  0.15812949  0.04267196     0.14300
H1436       H  0.05570650  0.05906272  0.03200748     0.14100
H1437       H  0.92073680  0.05871968  0.03347136     0.32300
H1438       H  0.05385986  0.15888613  0.04066686     0.35100
C1439       C  0.83195722  0.46544951  0.99900507     0.20700
C1440       C  0.83235569  0.47391118  0.98790535    -0.39200
C1441       C  0.83450694  0.50702926  0.98562209     0.19600
C1442       C  0.83586359  0.52991165  0.99377398     0.22300
C1443       C  0.83605119  0.52143810  0.00483701    -0.39700
C1444       C  0.83413321  0.48840359  0.00711082     0.21100
N1445       N  0.82995235  0.43572303  0.00335149    -0.33000
C1446       C  0.83128968  0.43976564  0.01431376    -0.10500
C1447       C  0.83393943  0.47235541  0.01692383    -0.29400
N1448       N  0.83653890  0.55972806  0.98953774    -0.46000
C1449       C  0.83591274  0.55599263  0.97857641    -0.05200
C1450       C  0.83491674  0.52338996  0.97582581    -0.22600
H1451       H  0.83090564  0.45605904  0.98152055     0.19200
H1452       H  0.83739478  0.53929835  0.01122217     0.18000
H1453       H  0.83551958  0.48301155  0.02493179     0.14300
H1454       H  0.83379046  0.51302060  0.96776933     0.14100
H1455       H  0.82861165  0.41401646  0.99911274     0.32300
H1456       H  0.83750057  0.58131465  0.99385713     0.35100
C1457       C  0.81183632  0.27675827  0.02281582     0.20700
C1458       C  0.82037175  0.24859254  0.01723934    -0.39200
C1459       C  0.81261193  0.21946891  0.02246363     0.19600
C1460       C  0.79769593  0.21845699  0.03251851     0.22300
C1461       C  0.78915667  0.24660699  0.03808030    -0.39700
C1462       C  0.79668919  0.27570992  0.03282427     0.21100
N1463       N  0.82038801  0.30714610  0.02028996    -0.33000
C1464       C  0.81093096  0.32579351  0.02876274    -0.10500
C1465       C  0.79562657  0.30680717  0.03668051    -0.29400
N1466       N  0.79718799  0.18830366  0.03647443    -0.46000
C1467       C  0.81206284  0.16975730  0.02893223    -0.05200
C1468       C  0.82164862  0.18850130  0.02002353    -0.22600
H1469       H  0.83380918  0.24932008  0.00969555     0.19200
H1470       H  0.77912198  0.24593565  0.04620746     0.18000
H1471       H  0.78788000  0.31389352  0.04471771     0.14300
H1472       H  0.83638326  0.18101756  0.01323652     0.14100
H1473       H  0.83436231  0.31442696  0.01364838     0.32300
H1474       H  0.78998121  0.18166751  0.04430053     0.35100
C1475       C  0.14460432  0.53430510  0.99481960     0.20700
C1476       C  0.14446074  0.52509377  0.00579889    -0.39200
C1477       C  0.14652526  0.49198795  0.00776308     0.19600
C1478       C  0.14919663  0.46976160  0.99944754     0.22300
C1479       C  0.14901529  0.47895413  0.98845418    -0.39700
C1480       C  0.14629869  0.51203787  0.98648596     0.21100
N1481       N  0.14212072  0.56422158  0.99081504    -0.33000
C1482       C  0.14173291  0.56097467  0.97984441    -0.10500
C1483       C  0.14415152  0.52875271  0.97684432    -0.29400
N1484       N  0.14972555  0.43971719  0.00346335    -0.46000
C1485       C  0.14663620  0.44282577  0.01439765    -0.05200
C1486       C  0.14474925  0.47508763  0.01737384    -0.22600
H1487       H  0.14218138  0.54237123  0.01232586     0.19200
H1488       H  0.15018227  0.46158482  0.98191804     0.18000
H1489       H  0.14452034  0.51881696  0.96873106     0.14300
H1490       H  0.14168399  0.48491411  0.02544235     0.14100
H1491       H  0.14013751  0.58546094  0.99527451     0.32300
H1492       H  0.15054849  0.41839254  0.99900270     0.35100
C1493       C  0.16550639  0.22214606  0.02134327     0.20700
C1494       C  0.15570512  0.24989484  0.01584896    -0.39200
C1495       C  0.16392441  0.27916853  0.02080100     0.19600
C1496       C  0.18061300  0.28078436  0.03051824     0.22300
C1497       C  0.19071889  0.25299430  0.03595997    -0.39700
C1498       C  0.18244514  0.22365771  0.03101273     0.21100
N1499       N  0.15566891  0.19191945  0.01933056    -0.33000
C1500       C  0.16562415  0.17397502  0.02787436    -0.10500
C1501       C  0.18323230  0.19294538  0.03519739    -0.29400
N1502       N  0.18073054  0.31094569  0.03445060    -0.46000
C1503       C  0.16352628  0.32861993  0.02726282    -0.05200
C1504       C  0.15344631  0.30963566  0.01851232    -0.22600
H1505       H  0.14058802  0.24872733  0.00869343     0.19200
H1506       H  0.20191607  0.25407085  0.04389915     0.18000
H1507       H  0.19190148  0.18638268  0.04317232     0.14300
H1508       H  0.13734002  0.31650854  0.01202280     0.14100
H1509       H  0.14010048  0.18454824  0.01312871     0.32300
H1510       H  0.18946803  0.31797609  0.04204547     0.35100
C1511       C  0.01548638  0.40793807  0.03194279     0.20700
C1512       C  0.98739145  0.42497385  0.02946523    -0.39200
C1513       C  0.95835064  0.41013518  0.03266497     0.19600
C1514       C  0.95759242  0.38060155  0.03785208     0.22300
C1515       C  0.98547812  0.36361625  0.04025850    -0.39700
C1516       C  0.01427736  0.37837299  0.03708944     0.21100
N1517       N  0.04611366  0.41619521  0.02959555    -0.33000
C1518       C  0.06417627  0.39143216  0.03320362    -0.10500
C1519       C  0.04511866  0.36750887  0.03791504    -0.29400
N1520       N  0.92731670  0.37042667  0.03938083    -0.46000
C1521       C  0.90841247  0.39341016  0.03507411    -0.05200
C1522       C  0.92680733  0.41887621  0.03093833    -0.22600
H1523       H  0.98804994  0.44771100  0.02519695     0.19200
H1524       H  0.98475021  0.34021273  0.04409613     0.18000
H1525       H  0.05279405  0.34498357  0.04140342     0.14300
H1526       H  0.91834208  0.43977045  0.02660137     0.14100
H1527       H  0.05412229  0.43679387  0.02551991     0.32300
H1528       H  0.92005502  0.34855093  0.04280001     0.35100
C1529       C  0.78880803  0.01651945  0.08322935     0.20700
C1530       C  0.78660809  0.04758179  0.07885521    -0.39200
C1531       C  0.79694725  0.05110127  0.06803855     0.19600
C1532       C  0.80874050  0.02567279  0.06204647     0.22300
C1533       C  0.81044758  0.99449679  0.06635045    -0.39700
C1534       C  0.79996483  0.99093929  0.07715081     0.21100
N1535       N  0.78363900  0.00761560  0.09361927    -0.33000
C1536       C  0.79146734  0.97613293  0.09414426    -0.10500
C1537       C  0.80137760  0.96480689  0.08400711    -0.29400
N1538       N  0.81950441  0.03580284  0.05229901    -0.46000
C1539       C  0.81440822  0.06792721  0.05203917    -0.05200
C1540       C  0.80009970  0.07825642  0.06169609    -0.22600
H1541       H  0.77863261  0.06778568  0.08365572     0.19200
H1542       H  0.82041098  0.97473442  0.06177583     0.18000
H1543       H  0.81071371  0.94128327  0.08211762     0.14300
H1544       H  0.79420714  0.10258880  0.06398826     0.14100
H1545       H  0.77682787  0.02240996  0.10006699     0.32300
H1546       H  0.83009330  0.02169862  0.04628821     0.35100
C1547       C  0.15838883  0.03251340  0.06216079     0.20700
C1548       C  0.15538603  0.00137285  0.06636270    -0.39200
C1549       C  0.16403684  0.99771849  0.07728774     0.19600
C1550       C  0.17441949  0.02321478  0.08365045     0.22300
C1551       C  0.17764563  0.05448331  0.07940656    -0.39700
C1552       C  0.16939215  0.05805309  0.06837738     0.21100
N1553       N  0.15076504  0.04216428  0.05209073    -0.33000
C1554       C  0.15708278  0.07412125  0.05177729    -0.10500
C1555       C  0.16893992  0.08493857  0.06179037    -0.29400
N1556       N  0.17930991  0.01353249  0.09397203    -0.46000
C1557       C  0.17226460  0.98163088  0.09407424    -0.05200
C1558       C  0.16282504  0.97094631  0.08381827    -0.22600
H1559       H  0.14652542  0.98148738  0.06150850     0.19200
H1560       H  0.18556241  0.07456775  0.08434727     0.18000
H1561       H  0.17526715  0.10930381  0.06406243     0.14300
H1562       H  0.15471118  0.94707223  0.08156871     0.14100
H1563       H  0.14171315  0.02770548  0.04584813     0.32300
H1564       H  0.18622902  0.02780431  0.10057136     0.35100
C1565       C  0.95554380  0.94737890  0.12340897     0.20700
C1566       C  0.98397374  0.96255827  0.12696259    -0.39200
C1567       C  0.01269291  0.94718947  0.12410875     0.19600
C1568       C  0.01296548  0.91892146  0.11817255     0.22300
C1569       C  0.98466144  0.90378557  0.11463096    -0.39700
C1570       C  0.95608241  0.91910638  0.11747910     0.21100
N1571       N  0.92506148  0.95635893  0.12535982    -0.33000
C1572       C  0.90631594  0.93341898  0.12067483    -0.10500
C1573       C  0.92478955  0.90999543  0.11563836    -0.29400
N1574       N  0.04314952  0.90893220  0.11658061    -0.46000
C1575       C  0.06233052  0.93094685  0.12153056    -0.05200
C1576       C  0.04428781  0.95520506  0.12632948    -0.22600
H1577       H  0.98374913  0.98449057  0.13168485     0.19200
H1578       H  0.98486025  0.88151776  0.11008663     0.18000
H1579       H  0.91638680  0.88860872  0.11146656     0.14300
H1580       H  0.05309761  0.97583843  0.13082030     0.14100
H1581       H  0.91751138  0.97624149  0.12982923     0.32300
H1582       H  0.05028133  0.88836931  0.11238825     0.35100
C1583       C  0.16470895  0.50185781  0.07781492     0.20700
C1584       C  0.15664863  0.50100331  0.06675370    -0.39200
C1585       C  0.15643848  0.47054220  0.06193399     0.19600
C1586       C  0.16385720  0.44297747  0.06765425     0.22300
C1587       C  0.17145989  0.44376038  0.07879666    -0.39700
C1588       C  0.17155155  0.47431674  0.08365213     0.21100
N1589       N  0.16579901  0.52781201  0.08426856    -0.33000
C1590       C  0.17307388  0.51682873  0.09432980    -0.10500
C1591       C  0.17682293  0.48354826  0.09430333    -0.29400
N1592       N  0.16188291  0.41706053  0.06114421    -0.46000
C1593       C  0.15279799  0.42827308  0.05125065    -0.05200
C1594       C  0.14911774  0.46150318  0.05146336    -0.22600
H1595       H  0.15071548  0.52247932  0.06224826     0.19200
H1596       H  0.17667656  0.42219469  0.08335613     0.18000
H1597       H  0.18177400  0.46815933  0.10118581     0.14300
H1598       H  0.14206835  0.47708732  0.04487034     0.14100
H1599       H  0.16070440  0.55144185  0.08204806     0.32300
H1600       H  0.16573578  0.39320180  0.06337076     0.35100
C1601       C  0.17881146  0.72087441  0.12657910     0.20700
C1602       C  0.16855790  0.74835683  0.13200819    -0.39200
C1603       C  0.17626977  0.77745173  0.12698891     0.19600
C1604       C  0.19309027  0.77935444  0.11727873     0.22300
C1605       C  0.20360234  0.75161432  0.11182277    -0.39700
C1606       C  0.19572820  0.72219164  0.11687095     0.21100
N1607       N  0.17189034  0.69053380  0.12932381    -0.33000
C1608       C  0.18416737  0.67206772  0.12132823    -0.10500
C1609       C  0.19968366  0.69079219  0.11343413    -0.29400
N1610       N  0.19546435  0.81014526  0.11395108    -0.46000
C1611       C  0.17980607  0.82747704  0.12162507    -0.05200
C1612       C  0.16773953  0.80793134  0.12986382    -0.22600
H1613       H  0.15453669  0.74711245  0.13942507     0.19200
H1614       H  0.21596531  0.75279877  0.10407843     0.18000
H1615       H  0.21059096  0.68270179  0.10593541     0.14300
H1616       H  0.15361108  0.81501227  0.13684976     0.14100
H1617       H  0.15832300  0.68290455  0.13602074     0.32300
H1618       H  0.20603909  0.81867722  0.10678677     0.35100
C1619       C  0.80576274  0.50204508  0.07820171     0.20700
C1620       C  0.81450832  0.50108053  0.06717152    -0.39200
C1621       C  0.81320640  0.47072830  0.06223027     0.19600
C1622       C  0.80377244  0.44334995  0.06780764     0.22300
C1623       C  0.79533187  0.44423597  0.07889645    -0.39700
C1624       C  0.79673693  0.47466111  0.08386802     0.21100
N1625       N  0.80640023  0.52775072  0.08482393    -0.33000
C1626       C  0.79801880  0.51674562  0.09483106    -0.10500
C1627       C  0.79174899  0.48372399  0.09455729    -0.29400
N1628       N  0.80541012  0.41739388  0.06129636    -0.46000
C1629       C  0.81631773  0.42833794  0.05153351    -0.05200
C1630       C  0.82137071  0.46150081  0.05183664    -0.22600
H1631       H  0.82233004  0.52234200  0.06280059     0.19200
H1632       H  0.78870100  0.42276601  0.08336742     0.18000
H1633       H  0.78562691  0.46825505  0.10134305     0.14300
H1634       H  0.83025481  0.47686631  0.04538304     0.14100
H1635       H  0.81348065  0.55111993  0.08276180     0.32300
H1636       H  0.80051716  0.39360853  0.06349338     0.35100
C1637       C  0.95819110  0.57252335  0.11756666     0.20700
C1638       C  0.98562153  0.58809288  0.11349930    -0.39200
C1639       C  0.01496745  0.57597381  0.11705515     0.19600
C1640       C  0.01700093  0.55012891  0.12410157     0.22300
C1641       C  0.98937796  0.53440277  0.12818108    -0.39700
C1642       C  0.95978849  0.54672175  0.12465024     0.21100
N1643       N  0.92766312  0.58068595  0.11574069    -0.33000
C1644       C  0.90936512  0.56026198  0.12172767    -0.10500
C1645       C  0.92844560  0.53842764  0.12738025    -0.29400
N1646       N  0.04793761  0.54399044  0.12644849    -0.46000
C1647       C  0.06541955  0.56624369  0.12087731    -0.05200
C1648       C  0.04571084  0.58649454  0.11491086    -0.22600
H1649       H  0.98418110  0.60860433  0.10811387     0.19200
H1650       H  0.99081796  0.51452815  0.13383053     0.18000
H1651       H  0.92055924  0.51978077  0.13293974     0.14300
H1652       H  0.05291849  0.60652527  0.10981351     0.14100
H1653       H  0.91974898  0.59966815  0.11090589     0.32300
H1654       H  0.05659925  0.52614461  0.13161481     0.35100
C1655       C  0.80485147  0.77749312  0.12792126     0.20700
C1656       C  0.81667483  0.74981842  0.13292504    -0.39200
C1657       C  0.80602637  0.72062501  0.12850286     0.19600
C1658       C  0.78507371  0.71894662  0.11977050     0.22300
C1659       C  0.77317656  0.74677016  0.11475190    -0.39700
C1660       C  0.78392579  0.77611648  0.11917463     0.21100
N1661       N  0.81232199  0.80802075  0.13040427    -0.33000
C1662       C  0.79607663  0.82636110  0.12321364    -0.10500
C1663       C  0.77803759  0.80740663  0.11606237    -0.29400
N1664       N  0.77986954  0.68814463  0.11683184    -0.46000
C1665       C  0.79792123  0.67033184  0.12370957    -0.05200
C1666       C  0.81434964  0.68974649  0.13112096    -0.22600
H1667       H  0.83346686  0.75094123  0.13963978     0.19200
H1668       H  0.75724031  0.74566466  0.10780512     0.18000
H1669       H  0.76323058  0.81540764  0.10937499     0.14300
H1670       H  0.83097078  0.68227663  0.13737865     0.14100
H1671       H  0.82795882  0.81590352  0.13651490     0.32300
H1672       H  0.76581056  0.67984326  0.11036165     0.35100
C1673       C  0.23222510  0.56981647  0.16537423     0.20700
C1674       C  0.23180263  0.57717136  0.17651407    -0.39200
C1675       C  0.26183683  0.57802299  0.18166532     0.19600
C1676       C  0.29011914  0.57184687  0.17614991     0.22300
C1677       C  0.29060485  0.56500124  0.16495406    -0.39700
C1678       C  0.26052804  0.56423331  0.15978345     0.21100
N1679       N  0.20697241  0.56870576  0.15859674    -0.33000
C1680       C  0.21918325  0.56269425  0.14858580    -0.10500
C1681       C  0.25255120  0.55971745  0.14897814    -0.29400
N1682       N  0.31545988  0.57461512  0.18286471    -0.46000
C1683       C  0.30326973  0.58299943  0.19269710    -0.05200
C1684       C  0.26988107  0.58540658  0.19225576    -0.22600
H1685       H  0.20973238  0.58229444  0.18081945     0.19200
H1686       H  0.31278219  0.56096784  0.16057321     0.18000
H1687       H  0.26882564  0.55605075  0.14222564     0.14300
H1688       H  0.25367772  0.59199460  0.19875397     0.14100
H1689       H  0.18300337  0.57316849  0.16058048     0.32300
H1690       H  0.33963816  0.57207999  0.18077356     0.35100
C1691       C  0.34531623  0.78165411  0.20307228     0.20700
C1692       C  0.36286436  0.75409349  0.20074531    -0.39200
C1693       C  0.34802052  0.72503518  0.20350409     0.19600
C1694       C  0.31772225  0.72321855  0.20813504     0.22300
C1695       C  0.29992847  0.75102899  0.21043763    -0.39700
C1696       C  0.31502705  0.78041557  0.20774647     0.21100
N1697       N  0.35607681  0.81193204  0.20234966    -0.33000
C1698       C  0.33285925  0.83045425  0.20672643    -0.10500
C1699       C  0.30647762  0.81177898  0.21000895    -0.29400
N1700       N  0.31046464  0.69258993  0.21082067    -0.46000
C1701       C  0.33671003  0.67524437  0.20803887    -0.05200
C1702       C  0.36032179  0.69469079  0.20333848    -0.22600
H1703       H  0.38711086  0.75528454  0.19755117     0.19200
H1704       H  0.27683569  0.74994535  0.21449178     0.18000
H1705       H  0.28530226  0.81974752  0.21431470     0.14300
H1706       H  0.38397948  0.68781720  0.20057477     0.14100
H1707       H  0.37869141  0.81927334  0.19953990     0.32300
H1708       H  0.28986386  0.68435842  0.21485625     0.35100
C1709       C  0.25663901  0.94220047  0.15963963     0.20700
C1710       C  0.28773455  0.94337683  0.16411679    -0.39200
C1711       C  0.28968613  0.93778886  0.17538362     0.19600
C1712       C  0.26275663  0.93118617  0.18165320     0.22300
C1713       C  0.23173738  0.93037350  0.17721313    -0.39700
C1714       C  0.22975762  0.93625646  0.16600720     0.21100
N1715       N  0.24839689  0.94449251  0.14906952    -0.33000
C1716       C  0.21603243  0.94018574  0.14876925    -0.10500
C1717       C  0.20360375  0.93516826  0.15917489    -0.29400
N1718       N  0.27109639  0.92401589  0.19191763    -0.46000
C1719       C  0.30359379  0.92616284  0.19226174    -0.05200
C1720       C  0.31606687  0.93506312  0.18211732    -0.22600
H1721       H  0.30890212  0.94738897  0.15915189     0.19200
H1722       H  0.21074758  0.92458578  0.18207205     0.18000
H1723       H  0.17893588  0.92973389  0.16137118     0.14300
H1724       H  0.34111078  0.93726691  0.17981572     0.14100
H1725       H  0.26388346  0.94766998  0.14245249     0.32300
H1726       H  0.25559677  0.91726439  0.19822261     0.35100
C1727       C  0.45303027  0.56328409  0.21190802     0.20700
C1728       C  0.48074411  0.55336303  0.20631455    -0.39200
C1729       C  0.51022914  0.55905238  0.21160467     0.19600
C1730       C  0.51194563  0.57351763  0.22171126     0.22300
C1731       C  0.48421982  0.58339513  0.22730957    -0.39700
C1732       C  0.45476366  0.57775646  0.22201164     0.21100
N1733       N  0.42280203  0.56414604  0.20802677    -0.33000
C1734       C  0.40493936  0.57952306  0.21566333    -0.10500
C1735       C  0.42421081  0.58812298  0.22454145    -0.29400
N1736       N  0.54268244  0.58053696  0.22426909    -0.46000
C1737       C  0.56095242  0.57106478  0.21569909    -0.05200
C1738       C  0.54133614  0.55696241  0.20770464    -0.22600
H1739       H  0.47956725  0.54371813  0.19814522     0.19200
H1740       H  0.48562750  0.59633832  0.23493290     0.18000
H1741       H  0.41726370  0.60237216  0.23150585     0.14300
H1742       H  0.54812978  0.54962550  0.19959242     0.14100
H1743       H  0.41575138  0.55693249  0.20025388     0.32300
H1744       H  0.55049626  0.59392203  0.23096867     0.35100
C1745       C  0.71449659  0.55912365  0.16082564     0.20700
C1746       C  0.68294368  0.55857077  0.16493615    -0.39200
C1747       C  0.67963186  0.56617013  0.17601857     0.19600
C1748       C  0.70570681  0.57421607  0.18247494     0.22300
C1749       C  0.73729136  0.57466036  0.17838235    -0.39700
C1750       C  0.74065331  0.56660222  0.16733368     0.21100
N1751       N  0.72382411  0.55436646  0.15046025    -0.33000
C1752       C  0.75617586  0.55872203  0.15034929    -0.10500
C1753       C  0.76756959  0.56614605  0.16074951    -0.29400
N1754       N  0.69607152  0.58146507  0.19263128    -0.46000
C1755       C  0.66361774  0.57766323  0.19271766    -0.05200
C1756       C  0.65252765  0.56809914  0.18247324    -0.22600
H1757       H  0.66242509  0.55298171  0.15984605     0.19200
H1758       H  0.75770505  0.58119931  0.18339686     0.18000
H1759       H  0.79199576  0.57221350  0.16304956     0.14300
H1760       H  0.62788800  0.56388925  0.17999843     0.14100
H1761       H  0.70896131  0.54967445  0.14379117     0.32300
H1762       H  0.71079778  0.58841865  0.19910401     0.35100
C1763       C  0.51123647  0.91555548  0.22147144     0.20700
C1764       C  0.48264837  0.90640885  0.22679824    -0.39200
C1765       C  0.45399266  0.91717017  0.22204410     0.19600
C1766       C  0.45377531  0.93531069  0.21262077     0.22300
C1767       C  0.48237681  0.94435160  0.20727881    -0.39700
C1768       C  0.51105337  0.93390323  0.21210138     0.21100
N1769       N  0.54121625  0.90574535  0.22373505    -0.33000
C1770       C  0.56048047  0.91759709  0.21571960    -0.10500
C1771       C  0.54233723  0.93570227  0.20837384    -0.29400
N1772       N  0.42353888  0.93892695  0.20895502    -0.46000
C1773       C  0.40417246  0.92266136  0.21602333    -0.05200
C1774       C  0.42246613  0.90932639  0.22440512    -0.22600
H1775       H  0.48263987  0.89077884  0.23383685     0.19200
H1776       H  0.48224657  0.95727199  0.19963613     0.18000
H1777       H  0.55007546  0.94644180  0.20079407     0.14300
H1778       H  0.41406925  0.89311729  0.23070733     0.14100
H1779       H  0.54786706  0.88996117  0.22992582     0.32300
H1780       H  0.41720149  0.94935719  0.20155528     0.35100
C1781       C  0.61802812  0.71629621  0.20516972     0.20700
C1782       C  0.60189482  0.74379995  0.20178167    -0.39200
C1783       C  0.61711574  0.77296276  0.20420585     0.19600
C1784       C  0.64635066  0.77480858  0.20955328     0.22300
C1785       C  0.66269160  0.74709849  0.21289873    -0.39700
C1786       C  0.64735773  0.71771187  0.21047560     0.21100
N1787       N  0.60711819  0.68602149  0.20455778    -0.33000
C1788       C  0.62955763  0.66778013  0.20948533    -0.10500
C1789       C  0.65527527  0.68656589  0.21320148    -0.29400
N1790       N  0.65401084  0.80559521  0.21179514    -0.46000
C1791       C  0.62911008  0.82313776  0.20801139    -0.05200
C1792       C  0.60595762  0.80360798  0.20308737    -0.22600
H1793       H  0.57847126  0.74260924  0.19796497     0.19200
H1794       H  0.68499186  0.74835664  0.21741240     0.18000
H1795       H  0.67598512  0.67871855  0.21777190     0.14300
H1796       H  0.58306038  0.81067274  0.19972185     0.14100
H1797       H  0.58532944  0.67836061  0.20117328     0.32300
H1798       H  0.67368596  0.81390132  0.21629803     0.35100
C1799       C  0.70490129  0.92346589  0.18281974     0.20700
C1800       C  0.73635260  0.92509389  0.17863022    -0.39200
C1801       C  0.73900566  0.93227546  0.16747811     0.19600
C1802       C  0.71232196  0.93702333  0.16097699     0.22300
C1803       C  0.68092549  0.93574742  0.16519302    -0.39700
C1804       C  0.67831379  0.92902367  0.17635969     0.21100
N1805       N  0.69584340  0.91573200  0.19302257    -0.33000
C1806       C  0.66325919  0.91682258  0.19310496    -0.10500
C1807       C  0.65149808  0.92513257  0.18285077    -0.29400
N1808       N  0.72104842  0.94076481  0.15049938    -0.46000
C1809       C  0.75354761  0.93858715  0.15029671    -0.05200
C1810       C  0.76564387  0.93360450  0.16075864    -0.22600
H1811       H  0.75718493  0.92038449  0.18362770     0.19200
H1812       H  0.66000983  0.93905850  0.16010068     0.18000
H1813       H  0.62662253  0.92693057  0.18037565     0.14300
H1814       H  0.79037545  0.92938951  0.16302741     0.14100
H1815       H  0.71090504  0.90995566  0.19951031     0.32300
H1816       H  0.70574035  0.94328259  0.14382901     0.35100
C1817       C  0.27492611  0.78034782  0.37451913     0.20700
C1818       C  0.26262140  0.75244542  0.37952874    -0.39200
C1819       C  0.27169362  0.72327161  0.37472405     0.19600
C1820       C  0.29127752  0.72224675  0.36560769     0.22300
C1821       C  0.30336657  0.74996095  0.36060321    -0.39700
C1822       C  0.29453114  0.77888907  0.36542081     0.21100
N1823       N  0.27214167  0.81091112  0.37793048    -0.33000
C1824       C  0.29039404  0.82860633  0.37096362    -0.10500
C1825       C  0.30447113  0.80953634  0.36303848    -0.29400
N1826       N  0.29886043  0.69198830  0.36313857    -0.46000
C1827       C  0.28439231  0.67342734  0.37076686    -0.05200
C1828       C  0.26682399  0.69192047  0.37809168    -0.22600
H1829       H  0.24821008  0.75333668  0.38685707     0.19200
H1830       H  0.31960431  0.74900956  0.35372392     0.18000
H1831       H  0.32084190  0.81699414  0.35664454     0.14300
H1832       H  0.25402380  0.68374385  0.38526222     0.14100
H1833       H  0.25970497  0.81904679  0.38476494     0.32300
H1834       H  0.31442527  0.68454403  0.35697608     0.35100
C1835       C  0.51467743  0.92915451  0.37909778     0.20700
C1836       C  0.48705470  0.91432131  0.38337859    -0.39200
C1837       C  0.45790206  0.92423383  0.37888915     0.19600
C1838       C  0.45634967  0.94732005  0.37079854     0.22300
C1839       C  0.48402104  0.96239450  0.36658063    -0.39700
C1840       C  0.51327741  0.95232599  0.37102928     0.21100
N1841       N  0.54524733  0.92210282  0.38142485    -0.33000
C1842       C  0.56351787  0.94067421  0.37475552    -0.10500
C1843       C  0.54452681  0.96018968  0.36822062    -0.29400
N1844       N  0.42577728  0.95176976  0.36768817    -0.46000
C1845       C  0.40787584  0.93138516  0.37385763    -0.05200
C1846       C  0.42700728  0.91381758  0.38094388    -0.22600
H1847       H  0.48824604  0.89579941  0.38954358     0.19200
H1848       H  0.48290029  0.98000536  0.36011724     0.18000
H1849       H  0.55244461  0.97661346  0.36191493     0.14300
H1850       H  0.41933458  0.89580658  0.38677358     0.14100
H1851       H  0.55319346  0.90475158  0.38691473     0.32300
H1852       H  0.41759054  0.96760346  0.36173390     0.35100
C1853       C  0.51138036  0.56106900  0.36881190     0.20700
C1854       C  0.48315574  0.54693178  0.36468604    -0.39200
C1855       C  0.45432692  0.56028675  0.36839670     0.19600
C1856       C  0.45374804  0.58590097  0.37558419     0.22300
C1857       C  0.48188211  0.60008795  0.37966763    -0.39700
C1858       C  0.51060593  0.58662519  0.37601919     0.21100
N1859       N  0.54187304  0.55267980  0.36668147    -0.33000
C1860       C  0.56040377  0.57311056  0.37260417    -0.10500
C1861       C  0.54181346  0.59460221  0.37850061    -0.29400
N1862       N  0.42344084  0.59415053  0.37788666    -0.46000
C1863       C  0.40457765  0.57358469  0.37215939    -0.05200
C1864       C  0.42286571  0.55207078  0.36614106    -0.22600
H1865       H  0.48359722  0.52692088  0.35907077     0.19200
H1866       H  0.48143818  0.62002750  0.38531524     0.18000
H1867       H  0.55008244  0.61357602  0.38386335     0.14300
H1868       H  0.41429234  0.53312150  0.36082657     0.14100
H1869       H  0.54958550  0.53438646  0.36151516     0.32300
H1870       H  0.41602862  0.61254895  0.38306490     0.35100
C1871       C  0.66427665  0.72436878  0.36658143     0.20700
C1872       C  0.65124329  0.75228520  0.36210238    -0.39200
C1873       C  0.66300867  0.78125811  0.36637439     0.19600
C1874       C  0.68605739  0.78247498  0.37448902     0.22300
C1875       C  0.69909698  0.75444830  0.37899189    -0.39700
C1876       C  0.68724359  0.72534776  0.37472626     0.21100
N1877       N  0.65602529  0.69394768  0.36421399    -0.33000
C1878       C  0.67365995  0.67532011  0.37093013    -0.10500
C1879       C  0.69353809  0.69396493  0.37759747    -0.29400
N1880       N  0.69222535  0.81309045  0.37740426    -0.46000
C1881       C  0.67280479  0.83127413  0.37110832    -0.05200
C1882       C  0.65435841  0.81229661  0.36412110    -0.22600
H1883       H  0.63282616  0.75149193  0.35588995     0.19200
H1884       H  0.71667213  0.75522610  0.38547465     0.18000
H1885       H  0.70965232  0.68571657  0.38388940     0.14300
H1886       H  0.63639793  0.82015306  0.35836474     0.14100
H1887       H  0.63872922  0.68633650  0.35859334     0.32300
H1888       H  0.70799579  0.82105552  0.38345929     0.35100
C1889       C  0.26441413  0.90685223  0.24485395     0.20700
C1890       C  0.25691051  0.90669490  0.25600765    -0.39200
C1891       C  0.22403951  0.90522571  0.25860942     0.19600
C1892       C  0.20040619  0.90435595  0.25070323     0.22300
C1893       C  0.20791414  0.90420007  0.23953701    -0.39700
C1894       C  0.24084025  0.90533446  0.23693624     0.21100
N1895       N  0.29384887  0.90766756  0.24030643    -0.33000
C1896       C  0.28915869  0.90633279  0.22938773    -0.10500
C1897       C  0.25632043  0.90480467  0.22698416    -0.29400
N1898       N  0.17102365  0.90306586  0.25529552    -0.46000
C1899       C  0.17593669  0.90274595  0.26621876    -0.05200
C1900       C  0.20875733  0.90400078  0.26858126    -0.22600
H1901       H  0.27534589  0.90740839  0.26221183     0.19200
H1902       H  0.18948970  0.90303330  0.23333454     0.18000
H1903       H  0.24519187  0.90350009  0.21904282     0.14300
H1904       H  0.21998367  0.90413933  0.27651658     0.14100
H1905       H  0.31579374  0.90828574  0.24442032     0.32300
H1906       H  0.14902324  0.90176295  0.25122800     0.35100
C1907       C  0.20399173  0.93053115  0.31365497     0.20700
C1908       C  0.23538719  0.93336866  0.31773423    -0.39200
C1909       C  0.23799342  0.93998485  0.32889148     0.19600
C1910       C  0.21135081  0.94314392  0.33554893     0.22300
C1911       C  0.17986573  0.94076057  0.33143133    -0.39700
C1912       C  0.17726319  0.93453695  0.32021028     0.21100
N1913       N  0.19524574  0.92233292  0.30348833    -0.33000
C1914       C  0.16266992  0.92146795  0.30346520    -0.10500
C1915       C  0.15055451  0.92916362  0.31375475    -0.29400
N1916       N  0.22034815  0.94578429  0.34604081    -0.46000
C1917       C  0.25292008  0.94434727  0.34602286    -0.05200
C1918       C  0.26476345  0.94119432  0.33546612    -0.22600
H1919       H  0.25628883  0.92958561  0.31266037     0.19200
H1920       H  0.15896004  0.94256243  0.33663684     0.18000
H1921       H  0.12563551  0.92931266  0.31629075     0.14300
H1922       H  0.28947576  0.93758862  0.33302840     0.14100
H1923       H  0.21056838  0.91724670  0.29699219     0.32300
H1924       H  0.20524826  0.94663526  0.35282847     0.35100
C1925       C  0.74295175  0.89514313  0.25901052     0.20700
C1926       C  0.70948020  0.89639225  0.25733872    -0.39200
C1927       C  0.69931737  0.89767031  0.24642235     0.19600
C1928       C  0.72088032  0.89724581  0.23785195     0.22300
C1929       C  0.75429904  0.89623641  0.23952520    -0.39700
C1930       C  0.76445636  0.89540355  0.25042460     0.21100
N1931       N  0.75871822  0.89422599  0.26857776    -0.33000
C1932       C  0.79057958  0.89432886  0.26610789    -0.10500
C1933       C  0.79500842  0.89501896  0.25482755    -0.29400
N1934       N  0.70528366  0.89787701  0.22826785    -0.46000
C1935       C  0.67345402  0.89900298  0.23067102    -0.05200
C1936       C  0.66880972  0.89907478  0.24195304    -0.22600
H1937       H  0.69260113  0.89648146  0.26404556     0.19200
H1938       H  0.77118404  0.89621992  0.23281962     0.18000
H1939       H  0.81753521  0.89513999  0.25041838     0.14300
H1940       H  0.64617193  0.89926490  0.24629630     0.14100
H1941       H  0.74832564  0.89427469  0.27631263     0.32300
H1942       H  0.71578811  0.89769046  0.22054957     0.35100
C1943       C  0.95400497  0.92897563  0.28236689     0.20700
C1944       C  0.98206821  0.94165683  0.28715994    -0.39200
C1945       C  0.01133242  0.93162670  0.28263063     0.19600
C1946       C  0.01260487  0.91060779  0.27394241     0.22300
C1947       C  0.98452360  0.89803455  0.26909208    -0.39700
C1948       C  0.95523008  0.90803507  0.27365157     0.21100
N1949       N  0.92365148  0.93173943  0.28605930    -0.33000
C1950       C  0.90515753  0.91218481  0.27972846    -0.10500
C1951       C  0.92415568  0.89737534  0.27179769    -0.29400
N1952       N  0.04309100  0.90142307  0.27213612    -0.46000
C1953       C  0.06146474  0.91599710  0.27987615    -0.05200
C1954       C  0.04237034  0.93572776  0.28640407    -0.22600
H1955       H  0.98121557  0.95671575  0.29432882     0.19200
H1956       H  0.98544331  0.88028940  0.26266697     0.18000
H1957       H  0.91657223  0.87911107  0.26605557     0.14300
H1958       H  0.04933869  0.94889342  0.29361437     0.14100
H1959       H  0.91674201  0.94438455  0.29298719     0.32300
H1960       H  0.05060105  0.88404759  0.26658155     0.35100
C1961       C  0.78824751  0.93863150  0.31844425     0.20700
C1962       C  0.78807004  0.94825215  0.32943078    -0.39200
C1963       C  0.75779608  0.94836805  0.33455789     0.19600
C1964       C  0.72987930  0.94003606  0.32907566     0.22300
C1965       C  0.73011876  0.93017487  0.31816268    -0.39700
C1966       C  0.76032332  0.92962178  0.31310709     0.21100
N1967       N  0.81400861  0.93402943  0.31199659    -0.33000
C1968       C  0.80239207  0.92144973  0.30256455    -0.10500
C1969       C  0.76897627  0.91856455  0.30296870    -0.29400
N1970       N  0.70458457  0.93973104  0.33587368    -0.46000
C1971       C  0.71636244  0.94722993  0.34583754    -0.05200
C1972       C  0.74948735  0.95301442  0.34534976    -0.22600
H1973       H  0.81000260  0.95394194  0.33378303     0.19200
H1974       H  0.70848370  0.92222680  0.31403713     0.18000
H1975       H  0.75312410  0.90864749  0.29683172     0.14300
H1976       H  0.76555696  0.95797419  0.35207548     0.14100
H1977       H  0.83808810  0.93752923  0.31412265     0.32300
H1978       H  0.68108271  0.93260562  0.33399708     0.35100
C1979       C  0.20267362  0.59174300  0.25100914     0.20700
C1980       C  0.21047914  0.59254427  0.23990450    -0.39200
C1981       C  0.24339400  0.59415510  0.23745672     0.19600
C1982       C  0.26679958  0.59459541  0.24545035     0.22300
C1983       C  0.25897257  0.59429089  0.25657364    -0.39700
C1984       C  0.22599913  0.59295898  0.25902045     0.21100
N1985       N  0.17312188  0.59083032  0.25542670    -0.33000
C1986       C  0.17755688  0.59196635  0.26634684    -0.10500
C1987       C  0.21026885  0.59323995  0.26889512    -0.29400
N1988       N  0.29631607  0.59576725  0.24097582    -0.46000
C1989       C  0.29162549  0.59646760  0.23005502    -0.05200
C1990       C  0.25891767  0.59563272  0.22756322    -0.22600
H1991       H  0.19224723  0.59213306  0.23362910     0.19200
H1992       H  0.27718160  0.59520525  0.26285282     0.18000
H1993       H  0.22117192  0.59453559  0.27686741     0.14300
H1994       H  0.24793661  0.59580124  0.21958934     0.14100
H1995       H  0.15129883  0.59059714  0.25123618     0.32300
H1996       H  0.31824233  0.59667496  0.24510014     0.35100
C1997       C  0.12426268  0.71822265  0.29314810     0.20700
C1998       C  0.10760314  0.74576888  0.29614649    -0.39200
C1999       C  0.12262017  0.77492970  0.29361943     0.19600
C2000       C  0.15230481  0.77688766  0.28855992     0.22300
C2001       C  0.16932856  0.74903574  0.28562624    -0.39700
C2002       C  0.15402631  0.71951141  0.28810271     0.21100
N2003       N  0.11287980  0.68809523  0.29353769    -0.33000
C2004       C  0.13518025  0.66962699  0.28864223    -0.10500
C2005       C  0.16163453  0.68820998  0.28529292    -0.29400
N2006       N  0.15933963  0.80769880  0.28598019    -0.46000
C2007       C  0.13354524  0.82500107  0.28925612    -0.05200
C2008       C  0.11054206  0.80532638  0.29419907    -0.22600
H2009       H  0.08368698  0.74456817  0.29961349     0.19200
H2010       H  0.19186239  0.75025577  0.28122912     0.18000
H2011       H  0.18225600  0.68030677  0.28067312     0.14300
H2012       H  0.08707128  0.81202618  0.29719221     0.14100
H2013       H  0.09046029  0.68080552  0.29653591     0.32300
H2014       H  0.17917628  0.81605220  0.28155438     0.35100
C2015       C  0.23767255  0.55766559  0.32922825     0.20700
C2016       C  0.23693968  0.56577936  0.31815878    -0.39200
C2017       C  0.20647008  0.56577847  0.31330444     0.19600
C2018       C  0.17872967  0.55793520  0.31896892     0.22300
C2019       C  0.17943464  0.54994001  0.33009423    -0.39700
C2020       C  0.20997340  0.55031292  0.33501017     0.21100
N2021       N  0.26321470  0.55928124  0.33588637    -0.33000
C2022       C  0.25175980  0.55359930  0.34603718    -0.10500
C2023       C  0.21868458  0.54755062  0.34582087    -0.29400
N2024       N  0.15264908  0.56185006  0.31262002    -0.46000
C2025       C  0.16393643  0.57274194  0.30290437    -0.05200
C2026       C  0.19740650  0.57526189  0.30304933    -0.22600
H2027       H  0.25839315  0.57297838  0.31376139     0.19200
H2028       H  0.15769864  0.54518291  0.33469158     0.18000
H2029       H  0.20284285  0.54396958  0.35271507     0.14300
H2030       H  0.21310728  0.58388073  0.29664545     0.14100
H2031       H  0.28658699  0.56628520  0.33376757     0.32300
H2032       H  0.12864298  0.55892735  0.31494168     0.35100
C2033       C  0.76566992  0.59033131  0.25061842     0.20700
C2034       C  0.75725739  0.59040609  0.23954289    -0.39200
C2035       C  0.72414840  0.58905437  0.23726560     0.19600
C2036       C  0.70110935  0.58741715  0.24537764     0.22300
C2037       C  0.70951281  0.58785311  0.25646262    -0.39700
C2038       C  0.74263381  0.58950504  0.25874126     0.21100
N2039       N  0.79546038  0.59143024  0.25491159    -0.33000
C2040       C  0.79143463  0.59167902  0.26587519    -0.10500
C2041       C  0.75875397  0.59062645  0.26854397    -0.29400
N2042       N  0.67131975  0.58643587  0.24106048    -0.46000
C2043       C  0.67538332  0.58797365  0.23010623    -0.05200
C2044       C  0.70804592  0.58961362  0.22746530    -0.22600
H2045       H  0.77517176  0.59159776  0.23315911     0.19200
H2046       H  0.69158630  0.58711718  0.26284875     0.18000
H2047       H  0.74809979  0.59039574  0.27657203     0.14300
H2048       H  0.71867776  0.59128656  0.21944891     0.14100
H2049       H  0.81714266  0.59250208  0.25063163     0.32300
H2050       H  0.64957958  0.58587011  0.24531571     0.35100
C2051       C  0.95530311  0.58147787  0.27325048     0.20700
C2052       C  0.98358586  0.59382835  0.26847500    -0.39200
C2053       C  0.01265868  0.58235727  0.27273755     0.19600
C2054       C  0.01356485  0.56018182  0.28111016     0.22300
C2055       C  0.98523706  0.54738318  0.28573408    -0.39700
C2056       C  0.95614124  0.55904606  0.28153410     0.21100
N2057       N  0.92512980  0.59202042  0.27176914    -0.33000
C2058       C  0.90643034  0.57677525  0.27927723    -0.10500
C2059       C  0.92505218  0.55543361  0.28537543    -0.29400
N2060       N  0.04379145  0.55709455  0.28490651    -0.46000
C2061       C  0.06234615  0.57784733  0.27903317    -0.05200
C2062       C  0.04373583  0.59324671  0.27114718    -0.22600
H2063       H  0.98303151  0.61271279  0.26242488     0.19200
H2064       H  0.98581980  0.53132420  0.29265490     0.18000
H2065       H  0.91776785  0.54123084  0.29232949     0.14300
H2066       H  0.05141749  0.61244229  0.26576823     0.14100
H2067       H  0.91805839  0.61042173  0.26654091     0.32300
H2068       H  0.05056264  0.54351328  0.29164167     0.35100
C2069       C  0.84368898  0.71577599  0.29433044     0.20700
C2070       C  0.85931384  0.74385555  0.29777436    -0.39200
C2071       C  0.84372336  0.77253597  0.29534802     0.19600
C2072       C  0.81461223  0.77344297  0.28991468     0.22300
C2073       C  0.79865174  0.74513056  0.28658631    -0.39700
C2074       C  0.81435400  0.71622304  0.28902269     0.21100
N2075       N  0.85564226  0.68603417  0.29453657    -0.33000
C2076       C  0.83389979  0.66714844  0.28933085    -0.10500
C2077       C  0.80749955  0.68497286  0.28590951    -0.29400
N2078       N  0.80733692  0.80391286  0.28723570    -0.46000
C2079       C  0.83238785  0.82217235  0.29081198    -0.05200
C2080       C  0.85507950  0.80344198  0.29611949    -0.22600
H2081       H  0.88293195  0.74349871  0.30145970     0.19200
H2082       H  0.77665246  0.74564309  0.28189987     0.18000
H2083       H  0.78735613  0.67666823  0.28106590     0.14300
H2084       H  0.87822461  0.81102953  0.29927129     0.14100
H2085       H  0.87793710  0.67929417  0.29764540     0.32300
H2086       H  0.78817787  0.81139679  0.28240499     0.35100
C2087       C  0.75502398  0.55340052  0.33474886     0.20700
C2088       C  0.78637197  0.55253853  0.33048519    -0.39200
C2089       C  0.78906871  0.55712821  0.31919031     0.19600
C2090       C  0.76255479  0.56245352  0.31266742     0.22300
C2091       C  0.73118427  0.56273323  0.31689201    -0.39700
C2092       C  0.72847794  0.55791362  0.32816003     0.21100
N2093       N  0.74633685  0.55281522  0.34530543    -0.33000
C2094       C  0.71402350  0.55676511  0.34541779    -0.10500
C2095       C  0.70200753  0.55972578  0.33487622    -0.29400
N2096       N  0.77171394  0.56986556  0.30247104    -0.46000
C2097       C  0.80429762  0.56917527  0.30244564    -0.05200
C2098       C  0.81598415  0.56084510  0.31270759    -0.22600
H2099       H  0.80724522  0.54992016  0.33564578     0.19200
H2100       H  0.71052424  0.56779234  0.31185164     0.18000
H2101       H  0.67751226  0.56471581  0.33250188     0.14300
H2102       H  0.84083477  0.56010753  0.31528198     0.14100
H2103       H  0.76157440  0.55121826  0.35202878     0.32300
H2104       H  0.75668898  0.57624133  0.29604283     0.35100
C2105       C  0.32914071  0.03800867  0.49409509     0.20700
C2106       C  0.33045353  0.02958871  0.50516940    -0.39200
C2107       C  0.33144143  0.99649610  0.50742135     0.19600
C2108       C  0.33062291  0.97359608  0.49926717     0.22300
C2109       C  0.32976915  0.98201583  0.48820617    -0.39700
C2110       C  0.32931735  0.01506459  0.48595497     0.21100
N2111       N  0.32888071  0.06775189  0.48979960    -0.33000
C2112       C  0.32956695  0.06374647  0.47884625    -0.10500
C2113       C  0.32982742  0.03118068  0.47615514    -0.29400
N2114       N  0.33130847  0.94385259  0.50350730    -0.46000
C2115       C  0.33298294  0.94765512  0.51444516    -0.05200
C2116       C  0.33331567  0.98023144  0.51719795    -0.22600
H2117       H  0.33098432  0.04748409  0.51155451     0.19200
H2118       H  0.32979164  0.96413414  0.48181470     0.18000
H2119       H  0.33061663  0.02062995  0.46812993     0.14300
H2120       H  0.33435423  0.99064000  0.52525294     0.14100
H2121       H  0.32934784  0.08947489  0.49406495     0.32300
H2122       H  0.33117194  0.92218399  0.49917940     0.35100
C2123       C  0.30359271  0.00036406  0.41596869     0.20700
C2124       C  0.30864174  0.00156516  0.42723769    -0.39200
C2125       C  0.31080129  0.03240572  0.43175041     0.19600
C2126       C  0.30776055  0.05996420  0.42554787     0.22300
C2127       C  0.30323601  0.05877803  0.41424088    -0.39700
C2128       C  0.30137497  0.02790348  0.40970320     0.21100
N2129       N  0.30195399  0.97401258  0.40969507    -0.33000
C2130       C  0.29907518  0.98484384  0.39935304    -0.10500
C2131       C  0.29863767  0.01830889  0.39901210    -0.29400
N2132       N  0.31116577  0.08628709  0.43177716    -0.46000
C2133       C  0.31698234  0.07532854  0.44196642    -0.05200
C2134       C  0.31697270  0.04189111  0.44226755    -0.22600
H2135       H  0.31126250  0.98007827  0.43210275     0.19200
H2136       H  0.30178728  0.08028154  0.40932256     0.18000
H2137       H  0.29754764  0.03352025  0.39188228     0.14300
H2138       H  0.32122038  0.02655916  0.44920120     0.14100
H2139       H  0.30403193  0.95017574  0.41223860     0.32300
H2140       H  0.31072892  0.11018474  0.42919444     0.35100
C2141       C  0.33622105  0.51647013  0.50755285     0.20700
C2142       C  0.33648011  0.48288442  0.50635076    -0.39200
C2143       C  0.33630456  0.47148216  0.49559526     0.19600
C2144       C  0.33650580  0.49204151  0.48674748     0.22300
C2145       C  0.33594605  0.52557465  0.48794870    -0.39700
C2146       C  0.33551854  0.53694991  0.49869231     0.21100
N2147       N  0.33622159  0.53326970  0.51689213    -0.33000
C2148       C  0.33504266  0.56468702  0.51398980    -0.10500
C2149       C  0.33450079  0.56791554  0.50267995    -0.29400
N2150       N  0.33676058  0.47537576  0.47739824    -0.46000
C2151       C  0.33621781  0.44393199  0.48025646    -0.05200
C2152       C  0.33584779  0.44049595  0.49156248    -0.22600
H2153       H  0.33660927  0.46683208  0.51327833     0.19200
H2154       H  0.33567466  0.54161952  0.48101971     0.18000
H2155       H  0.33399456  0.58993406  0.49800529     0.14300
H2156       H  0.33570594  0.41837493  0.49618907     0.14100
H2157       H  0.33660903  0.52382381  0.52475892     0.32300
H2158       H  0.33674599  0.48490530  0.46954149     0.35100
C2159       C  0.30877122  0.22474780  0.47131685     0.20700
C2160       C  0.31744897  0.25247878  0.47714104    -0.39200
C2161       C  0.31035690  0.28179273  0.47211174     0.19600
C2162       C  0.29601045  0.28343164  0.46198453     0.22300
C2163       C  0.28740998  0.25564534  0.45613928    -0.39700
C2164       C  0.29425312  0.22628348  0.46121651     0.21100
N2165       N  0.31708376  0.19445007  0.47364638    -0.33000
C2166       C  0.30831404  0.17639096  0.46493588    -0.10500
C2167       C  0.29345037  0.19550478  0.45707340    -0.29400
N2168       N  0.29628011  0.31383736  0.45827584    -0.46000
C2169       C  0.31114769  0.33178132  0.46606167    -0.05200
C2170       C  0.31980223  0.31249467  0.47486893    -0.22600
H2171       H  0.33059331  0.25131701  0.48472483     0.19200
H2172       H  0.27795917  0.25680065  0.44794795     0.18000
H2173       H  0.28649393  0.18882611  0.44890188     0.14300
H2174       H  0.33440078  0.31947178  0.48177732     0.14100
H2175       H  0.33084635  0.18700518  0.48027259     0.32300
H2176       H  0.28967426  0.32100425  0.45046398     0.35100
C2177       C  0.30450533  0.45045667  0.42772372     0.20700
C2178       C  0.29443825  0.45178393  0.41684286    -0.39200
C2179       C  0.29533960  0.48228164  0.41200619     0.19600
C2180       C  0.30522566  0.50948436  0.41760710     0.22300
C2181       C  0.31552150  0.50811744  0.42847977    -0.39700
C2182       C  0.31494589  0.47750720  0.43328104     0.21100
N2183       N  0.30714553  0.42413414  0.43396981    -0.33000
C2184       C  0.31976446  0.43434997  0.44355269    -0.10500
C2185       C  0.32495359  0.46754158  0.44341780    -0.29400
N2186       N  0.30563275  0.53520407  0.41098668    -0.46000
C2187       C  0.29636365  0.52415509  0.40108244    -0.05200
C2188       C  0.28958022  0.49132681  0.40141020    -0.22600
H2189       H  0.28726062  0.43048656  0.41237932     0.19200
H2190       H  0.32419431  0.52916327  0.43278156     0.18000
H2191       H  0.33502230  0.48241136  0.44979374     0.14300
H2192       H  0.28290375  0.47589211  0.39467972     0.14100
H2193       H  0.30170058  0.40054251  0.43169137     0.32300
H2194       H  0.31334567  0.55845425  0.41293769     0.35100
C2195       C  0.64790256  0.49129741  0.48710541     0.20700
C2196       C  0.64752070  0.52475461  0.48850877    -0.39200
C2197       C  0.64765038  0.53553847  0.49932498     0.19600
C2198       C  0.64764465  0.51457665  0.50806665     0.22300
C2199       C  0.64855012  0.48111543  0.50665858    -0.39700
C2200       C  0.64888372  0.47034337  0.49583927     0.21100
N2201       N  0.64694284  0.47504682  0.47766966    -0.33000
C2202       C  0.64769358  0.44350877  0.48039232    -0.10500
C2203       C  0.64913902  0.43960975  0.49165923    -0.29400
N2204       N  0.64644412  0.53082069  0.51750890    -0.46000
C2205       C  0.64619545  0.56237993  0.51477758    -0.05200
C2206       C  0.64705519  0.56626830  0.50349818    -0.22600
H2207       H  0.64687945  0.54116737  0.48168319     0.19200
H2208       H  0.64868589  0.46467787  0.51348171     0.18000
H2209       H  0.64934700  0.41730816  0.49618237     0.14300
H2210       H  0.64651766  0.58854250  0.49896498     0.14100
H2211       H  0.64592169  0.48487777  0.46986410     0.32300
H2212       H  0.64605365  0.52101187  0.52532815     0.35100
C2213       C  0.46137755  0.41004254  0.46135085     0.20700
C2214       C  0.48966608  0.42754055  0.46374771    -0.39200
C2215       C  0.51873773  0.41151787  0.46171532     0.19600
C2216       C  0.51932159  0.38043233  0.45774014     0.22300
C2217       C  0.49122963  0.36302558  0.45540470    -0.39700
C2218       C  0.46241795  0.37903790  0.45733528     0.21100
N2219       N  0.43066243  0.41922378  0.46277029    -0.33000
C2220       C  0.41225065  0.39368063  0.45968653    -0.10500
C2221       C  0.43134444  0.36832926  0.45620277    -0.29400
N2222       N  0.54956222  0.36996134  0.45685995    -0.46000
C2223       C  0.56875696  0.39442214  0.46028736    -0.05200
C2224       C  0.55040305  0.42094539  0.46331814    -0.22600
H2225       H  0.48909167  0.45164764  0.46702846     0.19200
H2226       H  0.49176708  0.33857478  0.45242188     0.18000
H2227       H  0.42363093  0.34483231  0.45341957     0.14300
H2228       H  0.55894859  0.44352902  0.46664175     0.14100
H2229       H  0.42280968  0.44094577  0.46602420     0.32300
H2230       H  0.55657289  0.34730160  0.45416419     0.35100
C2231       C  0.66425998  0.47501248  0.43319098     0.20700
C2232       C  0.66154160  0.50610943  0.42888489    -0.39200
C2233       C  0.66848408  0.50924340  0.41774806     0.19600
C2234       C  0.67717946  0.48332703  0.41136960     0.22300
C2235       C  0.68046675  0.45236943  0.41572527    -0.39700
C2236       C  0.67378454  0.44929734  0.42687190     0.21100
N2237       N  0.65650912  0.46521860  0.44329526    -0.33000
C2238       C  0.66126550  0.43303910  0.44342805    -0.10500
C2239       C  0.67243255  0.42234572  0.43335586    -0.29400
N2240       N  0.67980159  0.49204526  0.40086170    -0.46000
C2241       C  0.67304003  0.52380664  0.40056400    -0.05200
C2242       C  0.66610487  0.53543767  0.41094463    -0.22600
H2243       H  0.65355131  0.52616133  0.43375714     0.19200
H2244       H  0.68670883  0.43195719  0.41072769     0.18000
H2245       H  0.67717366  0.39787768  0.43091232     0.14300
H2246       H  0.65865778  0.55942943  0.41311953     0.14100
H2247       H  0.64785812  0.47950992  0.44960645     0.32300
H2248       H  0.68494474  0.47714532  0.39426313     0.35100
C2249       C  0.64080854  0.01645760  0.48680132     0.20700
C2250       C  0.64016862  0.98290123  0.48805404    -0.39200
C2251       C  0.64373824  0.97156023  0.49873889     0.19600
C2252       C  0.64720114  0.99214732  0.50750745     0.22300
C2253       C  0.64829355  0.02568911  0.50623715    -0.39700
C2254       C  0.64512302  0.03700906  0.49553304     0.21100
N2255       N  0.63781500  0.03313945  0.47750212    -0.33000
C2256       C  0.64067854  0.06459082  0.48026347    -0.10500
C2257       C  0.64528946  0.06794531  0.49147062    -0.29400
N2258       N  0.64836710  0.97551828  0.51686630    -0.46000
C2259       C  0.64596554  0.94409400  0.51406178    -0.05200
C2260       C  0.64332850  0.94061624  0.50279998    -0.22600
H2261       H  0.63688995  0.96681948  0.48121802     0.19200
H2262       H  0.65115411  0.04178398  0.51309045     0.18000
H2263       H  0.64816156  0.09000167  0.49603981     0.14300
H2264       H  0.64013884  0.91854682  0.49825862     0.14100
H2265       H  0.63472644  0.02354603  0.46972179     0.32300
H2266       H  0.65038158  0.98501656  0.52469844     0.35100
C2267       C  0.45680178  0.09799345  0.45891012     0.20700
C2268       C  0.48464631  0.08030258  0.46111081    -0.39200
C2269       C  0.51397089  0.09661843  0.45940550     0.19600
C2270       C  0.51532602  0.12809219  0.45579510     0.22300
C2271       C  0.48760487  0.14567137  0.45354654    -0.39700
C2272       C  0.45842506  0.12943165  0.45527918     0.21100
N2273       N  0.42604021  0.08887628  0.46058022    -0.33000
C2274       C  0.40809668  0.11489858  0.45812028    -0.10500
C2275       C  0.42753911  0.14049285  0.45467538    -0.29400
N2276       N  0.54576830  0.13895973  0.45553915    -0.46000
C2277       C  0.56413434  0.11433687  0.45905632    -0.05200
C2278       C  0.54516445  0.08734886  0.46143244    -0.22600
H2279       H  0.48355367  0.05601488  0.46423845     0.19200
H2280       H  0.48866386  0.17055675  0.45100366     0.18000
H2281       H  0.42024664  0.16443080  0.45238511     0.14300
H2282       H  0.55290082  0.06461034  0.46473164     0.14100
H2283       H  0.41795055  0.06693462  0.46372493     0.32300
H2284       H  0.55336957  0.16201654  0.45330506     0.35100
C2285       C  0.67095225  0.22478639  0.47199051     0.20700
C2286       C  0.66594479  0.25291212  0.47805560    -0.39200
C2287       C  0.67202229  0.28199674  0.47258990     0.19600
C2288       C  0.68250865  0.28297434  0.46190939     0.22300
C2289       C  0.68791645  0.25488569  0.45590482    -0.39700
C2290       C  0.68168948  0.22586720  0.46134475     0.21100
N2291       N  0.66147616  0.19477562  0.47464102    -0.33000
C2292       C  0.66613652  0.17648192  0.46564136    -0.10500
C2293       C  0.67893355  0.19526241  0.45720726    -0.29400
N2294       N  0.68096946  0.31299762  0.45794565    -0.46000
C2295       C  0.66922214  0.33150013  0.46610530    -0.05200
C2296       C  0.66369560  0.31287874  0.47540367    -0.22600
H2297       H  0.65552862  0.25225168  0.48612728     0.19200
H2298       H  0.69397725  0.25560867  0.44733942     0.18000
H2299       H  0.68219833  0.18854112  0.44878236     0.14300
H2300       H  0.65165738  0.32027304  0.48278700     0.14100
H2301       H  0.64976157  0.18777251  0.48179300     0.32300
H2302       H  0.68438331  0.31948245  0.44981826     0.35100
C2303       C  0.67866152  0.02270418  0.41207615     0.20700
C2304       C  0.68198765  0.05377028  0.41640360    -0.39200
C2305       C  0.67121093  0.05766276  0.42714805     0.19600
C2306       C  0.65789171  0.03263752  0.43309693     0.22300
C2307       C  0.65490214  0.00150791  0.42882211    -0.39700
C2308       C  0.66593035  0.99753157  0.41811798     0.21100
N2309       N  0.68466423  0.01331434  0.40180220    -0.33000
C2310       C  0.67581480  0.98191853  0.40133620    -0.10500
C2311       C  0.66434112  0.97116093  0.41137709    -0.29400
N2312       N  0.64805117  0.04290099  0.44290892    -0.46000
C2313       C  0.65540006  0.07469214  0.44327521    -0.05200
C2314       C  0.66995777  0.08470708  0.43357581    -0.22600
H2315       H  0.69151019  0.07362299  0.41166714     0.19200
H2316       H  0.64403033  0.98200070  0.43339426     0.18000
H2317       H  0.65413415  0.94779844  0.41327088     0.14300
H2318       H  0.67777012  0.10871444  0.43137598     0.14100
H2319       H  0.69288432  0.02769158  0.39539086     0.32300
H2320       H  0.63704917  0.02899531  0.44895034     0.35100
loop_ 
_geom_bond_atom_site_label_1 
_geom_bond_atom_site_label_2 
_geom_bond_distance 
_geom_bond_site_symmetry_2 
_ccdc_geom_bond_type 
C1            C2   1.531       .  S
C1            C7   1.538       .  S
C1            C5   1.539       .  S
C1         C2292   1.516       .  S
C2            H9   1.086       .  S
C2            C3   1.365       .  D
C3            C4   1.540       .  S
C3         C2277   1.481       .  S
C4            C8   1.540       .  S
C4            C6   1.541       .  S
C4           H10   1.108       .  S
C5           H11   1.086       .  S
C5            C6   1.371       .  D
C6         C2256   1.485       .  S
C7           H12   1.084       .  S
C7            C8   1.365       .  D
C8         C2313   1.483       .  S
C13          C14   1.538       .  S
C13          C19   1.532       .  S
C13          C17   1.538       .  S
C13        C2295   1.515       .  S
C14          H21   1.084       .  S
C14          C15   1.367       .  D
C15          C16   1.541       .  S
C15        C2238   1.481       .  S
C16          C20   1.542       .  S
C16          C18   1.538       .  S
C16          H22   1.109       .  S
C17          H23   1.086       .  S
C17          C18   1.369       .  D
C18        C2202   1.478       .  S
C19          H24   1.086       .  S
C19          C20   1.365       .  D
C20        C2223   1.484       .  S
C25          C26   1.528       .  S
C25          C31   1.539       .  S
C25          C29   1.541       .  S
C25        C2169   1.515       .  S
C26          H33   1.086       .  S
C26          C27   1.362       .  D
C27          C28   1.540       .  S
C27        C2220   1.481       .  S
C28          C32   1.543       .  S
C28          C30   1.538       .  S
C28          H34   1.109       .  S
C29          H35   1.086       .  S
C29          C30   1.370       .  D
C30        C2151   1.480       .  S
C31          H36   1.084       .  S
C31          C32   1.369       .  D
C32        C2184   1.482       .  S
C37          C38   1.540       .  S
C37          C43   1.527       .  S
C37          C41   1.540       .  S
C37        C2166   1.512       .  S
C38          H45   1.084       .  S
C38          C39   1.366       .  D
C39          C40   1.538       .  S
C39        C2133   1.474       .  S
C40          C44   1.542       .  S
C40          C42   1.540       .  S
C40          H46   1.110       .  S
C41          H47   1.086       .  S
C41          C42   1.369       .  D
C42        C2112   1.483       .  S
C43          H48   1.086       .  S
C43          C44   1.362       .  D
C44        C2274   1.480       .  S
C49          C50   1.545       .  S
C49          C55   1.532       .  S
C49          C53   1.544       .  S
C49        C2058   1.526       .  S
C50          H57   1.084       .  S
C50          C51   1.369       .  D
C51          C52   1.539       .  S
C51        C2097   1.483       .  S
C52          C56   1.537       .  S
C52          C54   1.539       .  S
C52          H58   1.109       .  S
C53          H59   1.085       .  S
C53          C54   1.373       .  D
C54        C2040   1.489       .  S
C55          H60   1.086       .  S
C55          C56   1.363       .  D
C56        C2076   1.477       .  S
C61          C62   1.532       .  S
C61          C67   1.548       .  S
C61          C65   1.538       .  S
C61        C2061   1.526       .  S
C62          H69   1.086       .  S
C62          C63   1.362       .  D
C63          C64   1.534       .  S
C63        C2004   1.479       .  S
C64          C68   1.541       .  S
C64          C66   1.537       .  S
C64          H70   1.109       .  S
C65          H71   1.086       .  S
C65          C66   1.369       .  D
C66        C1986   1.481       .  S
C67          H72   1.083       .  S
C67          C68   1.373       .  D
C68        C2025   1.486       .  S
C73          C74   1.528       .  S
C73          C79   1.545       .  S
C73          C77   1.542       .  S
C73        C1950   1.526       .  S
C74          H81   1.086       .  S
C74          C75   1.362       .  D
C75          C76   1.538       .  S
C75        C2079   1.478       .  S
C76          C80   1.544       .  S
C76          C78   1.542       .  S
C76          H82   1.109       .  S
C77          H83   1.085       .  S
C77          C78   1.373       .  D
C78        C1932   1.493       .  S
C79          H84   1.083       .  S
C79          C80   1.371       .  D
C80        C1968   1.486       .  S
C85          C86   1.545       .  S
C85          C91   1.529       .  S
C85          C89   1.538       .  S
C85        C1953   1.524       .  S
C86          H93   1.083       .  S
C86          C87   1.369       .  D
C87          C88   1.543       .  S
C87        C1914   1.486       .  S
C88          C92   1.539       .  S
C88          C90   1.544       .  S
C88          H94   1.110       .  S
C89          H95   1.086       .  S
C89          C90   1.371       .  D
C90        C1899   1.487       .  S
C91          H96   1.086       .  S
C91          C92   1.365       .  D
C92        C2007   1.481       .  S
In97         O99   2.266       .  S
In97        O100   2.247       .  S
In97        O108   2.263       .  S
In97        O102   2.241       .  S
In97        O104   2.263       .  S
In97        O105   2.258       .  S
In97        O106   2.222       .  S
In97        O109   2.230       .  S
C98         O104   1.262       .  A
C98         O106   1.257       .  A
C98        C1860   1.464       .  S
O99         C107   1.261       .  A
O100        C107   1.258       .  A
C101        O108   1.262       .  A
C101        O102   1.260       .  A
C101       C2094   1.473       .  S
C103        O105   1.263       .  A
C103        O109   1.259       .  A
C103       C1878   1.468       .  S
C107       C2241   1.473       .  S
In110       O112   2.220       .  S
In110       O113   2.266       .  S
In110       O121   2.262       .  S
In110       O115   2.237       .  S
In110       O117   2.265       .  S
In110       O118   2.241       .  S
In110       O119   2.224       .  S
In110       O122   2.261       .  S
C111        O117   1.263       .  A
C111        O119   1.258       .  A
C111       C1881   1.468       .  S
O112        C120   1.257       .  A
O113        C120   1.263       .  A
C114        O121   1.262       .  A
C114        O115   1.259       .  A
C114       C2310   1.471       .  S
C116        O118   1.261       .  A
C116        O122   1.263       .  A
C116       C1971   1.474       .  S
C120       C1842   1.466       .  S
In123       O125   2.213       .  S
In123       O126   2.261       .  S
In123       O134   2.256       .  S
In123       O128   2.239       .  S
In123       O130   2.251       .  S
In123       O131   2.249       .  S
In123       O132   2.231       .  S
In123       O135   2.247       .  S
C124        O130   1.261       .  A
C124        O132   1.257       .  A
C124       C1863   1.463       .  S
O125        C133   1.258       .  A
O126        C133   1.263       .  A
C127        O134   1.263       .  A
C127        O128   1.260       .  A
C127       C2022   1.472       .  S
C129        O131   1.259       .  A
C129        O135   1.261       .  A
C129       C2187   1.470       .  S
C133       C1827   1.463       .  S
In136       O138   2.244       .  S
In136       O139   2.244       .  S
In136       O147   2.259       .  S
In136       O141   2.239       .  S
In136       O143   2.246       .  S
In136       O144   2.258       .  S
In136       O145   2.237       .  S
In136       O148   2.213       .  S
C137        O143   1.261       .  A
C137        O145   1.259       .  A
C137       C1845   1.465       .  S
O138        C146   1.260       .  A
O139        C146   1.260       .  A
C140        O147   1.262       .  A
C140        O141   1.260       .  A
C140       C1917   1.473       .  S
C142        O144   1.263       .  A
C142        O148   1.259       .  A
C142       C1824   1.463       .  S
C146       C2130   1.467       .  S
C149        C150   1.527       .  S
C149        C155   1.542       .  S
C149        C153   1.544       .  S
C149       C1770   1.522       .  S
C150        H157   1.087       .  S
C150        C151   1.362       .  D
C151        C152   1.538       .  S
C151       C1791   1.474       .  S
C152        C156   1.540       .  S
C152        C154   1.543       .  S
C152        H158   1.109       .  S
C153        H159   1.086       .  S
C153        C154   1.374       .  D
C154       C1935   1.491       .  S
C155        H160   1.083       .  S
C155        C156   1.368       .  D
C156       C1806   1.484       .  S
C161        C162   1.545       .  S
C161        C167   1.528       .  S
C161        C165   1.546       .  S
C161       C1737   1.525       .  S
C162        H169   1.084       .  S
C162        C163   1.371       .  D
C163        C164   1.539       .  S
C163       C1755   1.488       .  S
C164        C168   1.536       .  S
C164        C166   1.540       .  S
C164        H170   1.109       .  S
C165        H171   1.086       .  S
C165        C166   1.374       .  D
C166       C2043   1.489       .  S
C167        H172   1.087       .  S
C167        C168   1.360       .  D
C168       C1788   1.473       .  S
C173        C174   1.542       .  S
C173        C179   1.527       .  S
C173        C177   1.541       .  S
C173       C1773   1.520       .  S
C174        H181   1.084       .  S
C174        C175   1.369       .  D
C175        C176   1.542       .  S
C175       C1719   1.481       .  S
C176        C180   1.537       .  S
C176        C178   1.541       .  S
C176        H182   1.109       .  S
C177        H183   1.085       .  S
C177        C178   1.372       .  D
C178       C1896   1.488       .  S
C179        H184   1.086       .  S
C179        C180   1.360       .  D
C180       C1698   1.476       .  S
C185        C186   1.531       .  S
C185        C191   1.542       .  S
C185        C189   1.540       .  S
C185       C1734   1.523       .  S
C186        H193   1.086       .  S
C186        C187   1.366       .  D
C187        C188   1.536       .  S
C187       C1701   1.478       .  S
C188        C192   1.538       .  S
C188        C190   1.539       .  S
C188        H194   1.110       .  S
C189        H195   1.086       .  S
C189        C190   1.370       .  D
C190       C1989   1.481       .  S
C191        H196   1.083       .  S
C191        C192   1.367       .  D
C192       C1683   1.480       .  S
In197       O199   2.264       .  S
In197       O200   2.254       .  S
In197       O208   2.263       .  S
In197       O202   2.249       .  S
In197       O204   2.278       .  S
In197       O205   2.276       .  S
In197       O206   2.216       .  S
In197       O209   2.226       .  S
C198        O204   1.263       .  A
C198        O206   1.257       .  A
C198       C1644   1.469       .  S
O199        C207   1.262       .  A
O200        C207   1.260       .  A
C201        O208   1.263       .  A
C201        O202   1.261       .  A
C201       C1752   1.477       .  S
C203        O205   1.264       .  A
C203        O209   1.258       .  A
C203       C1665   1.472       .  S
C207       C1626   1.477       .  S
In210       O212   2.231       .  S
In210       O213   2.260       .  S
In210       O221   2.253       .  S
In210       O215   2.232       .  S
In210       O217   2.269       .  S
In210       O218   2.233       .  S
In210       O219   2.209       .  S
In210       O222   2.258       .  S
C211        O217   1.264       .  A
C211        O219   1.258       .  A
C211       C1608   1.465       .  S
O212        C220   1.259       .  A
O213        C220   1.262       .  A
C214        O221   1.262       .  A
C214        O215   1.260       .  A
C214       C1590   1.468       .  S
C216        O218   1.260       .  A
C216        O222   1.263       .  A
C216       C1680   1.470       .  S
C220       C1647   1.468       .  S
In223       O225   2.263       .  S
In223       O226   2.235       .  S
In223       O234   2.267       .  S
In223       O228   2.235       .  S
In223       O230   2.259       .  S
In223       O231   2.268       .  S
In223       O232   2.238       .  S
In223       O235   2.212       .  S
C224        O230   1.261       .  A
C224        O232   1.257       .  A
C224       C1575   1.467       .  S
O225        C233   1.261       .  A
O226        C233   1.260       .  A
C227        O234   1.263       .  A
C227        O228   1.260       .  A
C227       C1716   1.473       .  S
C229        O231   1.263       .  A
C229        O235   1.259       .  A
C229       C1611   1.466       .  S
C233       C1557   1.471       .  S
In236       O238   2.216       .  S
In236       O239   2.278       .  S
In236       O247   2.269       .  S
In236       O241   2.241       .  S
In236       O243   2.256       .  S
In236       O244   2.258       .  S
In236       O245   2.225       .  S
In236       O248   2.261       .  S
C237        O243   1.264       .  A
C237        O245   1.260       .  A
C237       C1662   1.467       .  S
O238        C246   1.255       .  A
O239        C246   1.264       .  A
C240        O247   1.262       .  A
C240        O241   1.258       .  A
C240       C1536   1.473       .  S
C242        O244   1.261       .  A
C242        O248   1.262       .  A
C242       C1809   1.478       .  S
C246       C1572   1.467       .  S
C249        C250   1.529       .  S
C249        C255   1.543       .  S
C249        C253   1.539       .  S
C249       C1503   1.515       .  S
C250        H257   1.087       .  S
C250        C251   1.360       .  D
C251        C252   1.536       .  S
C251       C1518   1.474       .  S
C252        C256   1.540       .  S
C252        C254   1.538       .  S
C252        H258   1.109       .  S
C253        H259   1.086       .  S
C253        C254   1.368       .  D
C254       C1485   1.479       .  S
C255        H260   1.083       .  S
C255        C256   1.369       .  D
C256       C1593   1.480       .  S
C261        C262   1.545       .  S
C261        C267   1.529       .  S
C261        C265   1.547       .  S
C261       C1464   1.523       .  S
C262        H269   1.084       .  S
C262        C263   1.368       .  D
C263        C264   1.541       .  S
C263       C1629   1.485       .  S
C264        C268   1.534       .  S
C264        C266   1.540       .  S
C264        H270   1.109       .  S
C265        H271   1.085       .  S
C265        C266   1.374       .  D
C266       C1446   1.491       .  S
C267        H272   1.086       .  S
C267        C268   1.361       .  D
C268       C1521   1.473       .  S
C273        C274   1.526       .  S
C273        C279   1.540       .  S
C273        C277   1.537       .  S
C273       C1467   1.519       .  S
C274        H281   1.085       .  S
C274        C275   1.364       .  D
C275        C276   1.543       .  S
C275       C1428   1.485       .  S
C276        C280   1.543       .  S
C276        C278   1.542       .  S
C276        H282   1.108       .  S
C277        H283   1.086       .  S
C277        C278   1.370       .  D
C278       C1413   1.483       .  S
C279        H284   1.084       .  S
C279        C280   1.370       .  D
C280       C1539   1.484       .  S
C285        C286   1.542       .  S
C285        C291   1.534       .  S
C285        C289   1.538       .  S
C285       C1500   1.513       .  S
C286        H293   1.084       .  S
C286        C287   1.367       .  D
C287        C288   1.538       .  S
C287       C1554   1.480       .  S
C288        C292   1.537       .  S
C288        C290   1.538       .  S
C288        H294   1.107       .  S
C289        H295   1.086       .  S
C289        C290   1.368       .  D
C290       C1395   1.480       .  S
C291        H296   1.085       .  S
C291        C292   1.364       .  D
C292       C1431   1.481       .  S
C297        C298   1.531       .  S
C297        C303   1.542       .  S
C297        C301   1.541       .  S
C297       C1359   1.517       .  S
C298        H305   1.086       .  S
C298        C299   1.362       .  D
C299        C300   1.538       .  S
C299       C1338   1.477       .  S
C300        C304   1.539       .  S
C300        C302   1.537       .  S
C300        H306   1.110       .  S
C301        H307   1.086       .  S
C301        C302   1.368       .  D
C302       C2259   1.480       .  S
C303        H308   1.083       .  S
C303        C304   1.369       .  D
C304       C1374   1.480       .  S
C309        C310   1.538       .  S
C309        C315   1.529       .  S
C309        C313   1.538       .  S
C309       C1356   1.515       .  S
C310        H317   1.084       .  S
C310        C311   1.366       .  D
C311        C312   1.543       .  S
C311       C1320   1.480       .  S
C312        C316   1.542       .  S
C312        C314   1.540       .  S
C312        H318   1.110       .  S
C313        H319   1.086       .  S
C313        C314   1.370       .  D
C314       C2205   1.481       .  S
C315        H320   1.087       .  S
C315        C316   1.362       .  D
C316       C1302   1.477       .  S
C321        C322   1.540       .  S
C321        C327   1.528       .  S
C321        C325   1.540       .  S
C321       C1266   1.517       .  S
C322        H329   1.084       .  S
C322        C323   1.366       .  D
C323        C324   1.542       .  S
C323       C1284   1.480       .  S
C324        C328   1.541       .  S
C324        C326   1.541       .  S
C324        H330   1.110       .  S
C325        H331   1.086       .  S
C325        C326   1.372       .  D
C326       C2115   1.484       .  S
C327        H332   1.087       .  S
C327        C328   1.362       .  D
C328       C1341   1.478       .  S
C333        C334   1.531       .  S
C333        C339   1.542       .  S
C333        C337   1.542       .  S
C333       C1269   1.519       .  S
C334        H341   1.086       .  S
C334        C335   1.363       .  D
C335        C336   1.539       .  S
C335       C1305   1.477       .  S
C336        C340   1.539       .  S
C336        C338   1.538       .  S
C336        H342   1.110       .  S
C337        H343   1.086       .  S
C337        C338   1.371       .  D
C338       C2148   1.484       .  S
C339        H344   1.084       .  S
C339        C340   1.365       .  D
C340       C1251   1.478       .  S
C345        C346   1.541       .  S
C345        C351   1.529       .  S
C345        C349   1.543       .  S
C345       C1212   1.524       .  S
C346        H353   1.084       .  S
C346        C347   1.369       .  D
C347        C348   1.540       .  S
C347       C1230   1.480       .  S
C348        C352   1.540       .  S
C348        C350   1.541       .  S
C348        H354   1.109       .  S
C349        H355   1.086       .  S
C349        C350   1.372       .  D
C350       C1176   1.488       .  S
C351        H356   1.086       .  S
C351        C352   1.365       .  D
C352       C1194   1.484       .  S
C357        C358   1.527       .  S
C357        C363   1.541       .  S
C357        C361   1.544       .  S
C357       C1215   1.523       .  S
C358        H365   1.086       .  S
C358        C359   1.362       .  D
C359        C360   1.538       .  S
C359       C1140   1.478       .  S
C360        C364   1.542       .  S
C360        C362   1.543       .  S
C360        H366   1.109       .  S
C361        H367   1.085       .  S
C361        C362   1.374       .  D
C362       C1122   1.492       .  S
C363        H368   1.083       .  S
C363        C364   1.368       .  D
C364       C1158   1.482       .  S
C369        C370   1.529       .  S
C369        C375   1.546       .  S
C369        C373   1.541       .  S
C369       C1086   1.528       .  S
C370        H377   1.086       .  S
C370        C371   1.364       .  D
C371        C372   1.542       .  S
C371       C1197   1.484       .  S
C372        C376   1.543       .  S
C372        C374   1.546       .  S
C372        H378   1.108       .  S
C373        H379   1.085       .  S
C373        C374   1.372       .  D
C374       C1068   1.491       .  S
C375        H380   1.083       .  S
C375        C376   1.370       .  D
C376       C1104   1.490       .  S
C381        C382   1.546       .  S
C381        C387   1.528       .  S
C381        C385   1.543       .  S
C381       C1089   1.527       .  S
C382        H389   1.083       .  S
C382        C383   1.367       .  D
C383        C384   1.540       .  S
C383       C1053   1.484       .  S
C384        C388   1.537       .  S
C384        C386   1.540       .  S
C384        H390   1.110       .  S
C385        H391   1.086       .  S
C385        C386   1.374       .  D
C386       C1032   1.488       .  S
C387        H392   1.086       .  S
C387        C388   1.363       .  D
C388       C1143   1.474       .  S
In393       O395   2.259       .  S
In393       O396   2.247       .  S
In393       O404   2.255       .  S
In393       O398   2.242       .  S
In393       O400   2.275       .  S
In393       O401   2.266       .  S
In393       O402   2.230       .  S
In393       O405   2.234       .  S
C394        O400   1.263       .  A
C394        O402   1.259       .  A
C394       C1014   1.473       .  S
O395        C403   1.260       .  A
O396        C403   1.259       .  A
C397        O404   1.261       .  A
C397        O398   1.261       .  A
C397       C1323   1.470       .  S
C399        O401   1.263       .  A
C399        O405   1.259       .  A
C399        C996   1.471       .  S
C403       C1233   1.472       .  S
In406       O408   2.230       .  S
In406       O409   2.277       .  S
In406       O417   2.273       .  S
In406       O411   2.249       .  S
In406       O413   2.270       .  S
In406       O414   2.246       .  S
In406       O415   2.231       .  S
In406       O418   2.265       .  S
C407        O413   1.262       .  A
C407        O415   1.258       .  A
C407        C978   1.470       .  S
O408        C416   1.257       .  A
O409        C416   1.262       .  A
C410        O417   1.262       .  A
C410        O411   1.259       .  A
C410       C1107   1.478       .  S
C412        O414   1.259       .  A
C412        O418   1.262       .  A
C412       C1377   1.473       .  S
C416       C1017   1.472       .  S
In419       O421   2.255       .  S
In419       O422   2.236       .  S
In419       O430   2.274       .  S
In419       O424   2.239       .  S
In419       O426   2.276       .  S
In419       O427   2.254       .  S
In419       O428   2.225       .  S
In419       O431   2.224       .  S
C420        O426   1.262       .  A
C420        O428   1.256       .  A
C420        C981   1.469       .  S
O421        C429   1.261       .  A
O422        C429   1.259       .  A
C423        O430   1.263       .  A
C423        O424   1.260       .  A
C423       C1050   1.476       .  S
C425        O427   1.262       .  A
C425        O431   1.260       .  A
C425        C960   1.465       .  S
C429       C1287   1.468       .  S
In432       O434   2.214       .  S
In432       O435   2.271       .  S
In432       O443   2.261       .  S
In432       O437   2.240       .  S
In432       O439   2.263       .  S
In432       O440   2.247       .  S
In432       O441   2.240       .  S
In432       O444   2.258       .  S
C433        O439   1.261       .  A
C433        O441   1.258       .  A
C433        C999   1.470       .  S
O434        C442   1.258       .  A
O435        C442   1.263       .  A
C436        O443   1.262       .  A
C436        O437   1.259       .  A
C436       C1161   1.471       .  S
C438        O440   1.260       .  A
C438        O444   1.261       .  A
C438       C1248   1.473       .  S
C442        C963   1.466       .  S
C445        C446   1.534       .  S
C445        C451   1.541       .  S
C445        C449   1.543       .  S
C445        C909   1.522       .  S
C446        H453   1.086       .  S
C446        C447   1.364       .  D
C447        C448   1.538       .  S
C447        C924   1.477       .  S
C448        C452   1.537       .  S
C448        C450   1.538       .  S
C448        H454   1.110       .  S
C449        H455   1.086       .  S
C449        C450   1.370       .  D
C450       C1071   1.486       .  S
C451        H456   1.084       .  S
C451        C452   1.368       .  D
C452        C942   1.478       .  S
C457        C458   1.539       .  S
C457        C463   1.535       .  S
C457        C461   1.542       .  S
C457        C906   1.520       .  S
C458        H465   1.083       .  S
C458        C459   1.366       .  D
C459        C460   1.541       .  S
C459        C888   1.477       .  S
C460        C464   1.535       .  S
C460        C462   1.541       .  S
C460        H466   1.109       .  S
C461        H467   1.086       .  S
C461        C462   1.370       .  D
C462       C1035   1.487       .  S
C463        H468   1.086       .  S
C463        C464   1.364       .  D
C464        C870   1.479       .  S
C469        C470   1.530       .  S
C469        C475   1.544       .  S
C469        C473   1.543       .  S
C469        C834   1.529       .  S
C470        H477   1.087       .  S
C470        C471   1.365       .  D
C471        C472   1.541       .  S
C471        C873   1.482       .  S
C472        C476   1.544       .  S
C472        C474   1.544       .  S
C472        H478   1.110       .  S
C473        H479   1.086       .  S
C473        C474   1.371       .  D
C474       C1125   1.489       .  S
C475        H480   1.084       .  S
C475        C476   1.372       .  D
C476        C852   1.489       .  S
C481        C482   1.543       .  S
C481        C487   1.530       .  S
C481        C485   1.543       .  S
C481        C837   1.525       .  S
C482        H489   1.084       .  S
C482        C483   1.370       .  D
C483        C484   1.538       .  S
C483        C816   1.483       .  S
C484        C488   1.537       .  S
C484        C486   1.541       .  S
C484        H490   1.109       .  S
C485        H491   1.086       .  S
C485        C486   1.373       .  D
C486       C1179   1.489       .  S
C487        H492   1.086       .  S
C487        C488   1.364       .  D
C488        C927   1.478       .  S
C493        C494   1.547       .  S
C493        C499   1.529       .  S
C493        C497   1.542       .  S
C493        C780   1.522       .  S
C494        H501   1.084       .  S
C494        C495   1.371       .  D
C495        C496   1.540       .  S
C495        C798   1.484       .  S
C496        C500   1.538       .  S
C496        C498   1.538       .  S
C496        H502   1.109       .  S
C497        H503   1.086       .  S
C497        C498   1.370       .  D
C498       C1449   1.488       .  S
C499        H504   1.086       .  S
C499        C500   1.363       .  D
C500        C762   1.478       .  S
C505        C506   1.528       .  S
C505        C511   1.543       .  S
C505        C509   1.540       .  S
C505        C783   1.520       .  S
C506        H513   1.086       .  S
C506        C507   1.363       .  D
C507        C508   1.537       .  S
C507        C726   1.479       .  S
C508        C512   1.541       .  S
C508        C510   1.539       .  S
C508        H514   1.110       .  S
C509        H515   1.086       .  S
C509        C510   1.371       .  D
C510       C1410   1.482       .  S
C511        H516   1.084       .  S
C511        C512   1.367       .  D
C512        C747   1.480       .  S
C517        C518   1.544       .  S
C517        C523   1.529       .  S
C517        C521   1.539       .  S
C517        C690   1.518       .  S
C518        H525   1.083       .  S
C518        C519   1.368       .  D
C519        C520   1.542       .  S
C519        C711   1.485       .  S
C520        C524   1.539       .  S
C520        C522   1.537       .  S
C520        H526   1.109       .  S
C521        H527   1.086       .  S
C521        C522   1.369       .  D
C522       C1392   1.478       .  S
C523        H528   1.086       .  S
C523        C524   1.363       .  D
C524        C729   1.479       .  S
C529        C530   1.532       .  S
C529        C535   1.545       .  S
C529        C533   1.539       .  S
C529        C693   1.518       .  S
C530        H537   1.086       .  S
C530        C531   1.363       .  D
C531        C532   1.538       .  S
C531        C765   1.478       .  S
C532        C536   1.536       .  S
C532        C534   1.537       .  S
C532        H538   1.110       .  S
C533        H539   1.086       .  S
C533        C534   1.368       .  D
C534       C1482   1.479       .  S
C535        H540   1.083       .  S
C535        C536   1.367       .  D
C536        C675   1.477       .  S
In541       O543   2.254       .  S
In541       O544   2.236       .  S
In541       O552   2.251       .  S
In541       O546   2.224       .  S
In541       O548   2.265       .  S
In541       O549   2.262       .  S
In541       O550   2.219       .  S
In541       O553   2.223       .  S
C542        O548   1.261       .  A
C542        O550   1.257       .  A
C542        C654   1.465       .  S
O543        C551   1.262       .  A
O544        C551   1.260       .  A
C545        O552   1.262       .  A
C545        O546   1.260       .  A
C545        C891   1.464       .  S
C547        O549   1.263       .  A
C547        O553   1.258       .  A
C547        C639   1.466       .  S
C551        C708   1.470       .  S
In554       O556   2.209       .  S
In554       O557   2.256       .  S
In554       O565   2.254       .  S
In554       O559   2.245       .  S
In554       O561   2.255       .  S
In554       O562   2.235       .  S
In554       O563   2.232       .  S
In554       O566   2.259       .  S
C555        O561   1.262       .  A
C555        O563   1.259       .  A
C555        C657   1.466       .  S
O556        C564   1.259       .  A
O557        C564   1.263       .  A
C558        O565   1.261       .  A
C558        O559   1.261       .  A
C558        C945   1.472       .  S
C560        O562   1.259       .  A
C560        O566   1.262       .  A
C560        C744   1.470       .  S
C564        C621   1.461       .  S
In567       O569   2.232       .  S
In567       O570   2.266       .  S
In567       O578   2.259       .  S
In567       O572   2.239       .  S
In567       O574   2.259       .  S
In567       O575   2.248       .  S
In567       O576   2.212       .  S
In567       O579   2.264       .  S
C568        O574   1.264       .  A
C568        O576   1.259       .  A
C568        C636   1.463       .  S
O569        C577   1.257       .  A
O570        C577   1.262       .  A
C571        O578   1.262       .  A
C571        O572   1.258       .  A
C571        C672   1.470       .  S
C573        O575   1.262       .  A
C573        O579   1.263       .  A
C573        C855   1.479       .  S
C577        C603   1.468       .  S
In580       O582   2.260       .  S
In580       O583   2.241       .  S
In580       O591   2.261       .  S
In580       O585   2.239       .  S
In580       O587   2.263       .  S
In580       O588   2.272       .  S
In580       O589   2.217       .  S
In580       O592   2.222       .  S
C581        O587   1.263       .  A
C581        O589   1.258       .  A
C581        C618   1.464       .  S
O582        C590   1.263       .  A
O583        C590   1.260       .  A
C584        O591   1.261       .  A
C584        O585   1.259       .  A
C584        C801   1.471       .  S
C586        O588   1.262       .  A
C586        O592   1.257       .  A
C586        C600   1.468       .  S
C590        C819   1.473       .  S
C593        C598   1.385       .  A
C593        C594   1.407       .  A
C593        N599   1.347       .  A
C594        C595   1.406   1_655  A
C594        H605   1.082       .  S
C595        C604   1.382       .  A
C595        C596   1.385       .  A
C596        C597   1.399   1_455  A
C596        N602   1.340       .  A
C597        C598   1.398       .  A
C597        H606   1.083       .  S
C598        C601   1.372       .  A
N599        C600   1.356       .  A
N599        H609   1.044       .  S
C600        C601   1.392       .  A
C601        H607   1.083       .  S
N602        C603   1.354       .  A
N602        H610   1.045       .  S
C603        C604   1.396       .  A
C604        H608   1.082       .  S
C611        C616   1.385       .  A
C611        C612   1.396       .  A
C611        N617   1.337       .  A
C612        C613   1.394       .  A
C612        H623   1.083       .  S
C613        C622   1.368       .  A
C613        C614   1.385       .  A
C614        C615   1.407       .  A
C614        N620   1.346       .  A
C615        C616   1.406       .  A
C615        H624   1.082       .  S
C616        C619   1.383       .  A
N617        C618   1.352       .  A
N617        H627   1.045       .  S
C618        C619   1.397       .  A
C619        H625   1.082       .  S
N620        C621   1.356       .  A
N620        H628   1.045       .  S
C621        C622   1.389       .  A
C622        H626   1.083       .  S
C629        C634   1.385       .  A
C629        C630   1.397       .  A
C629        N635   1.337       .  A
C630        C631   1.396       .  A
C630        H641   1.083       .  S
C631        C640   1.371       .  A
C631        C632   1.385       .  A
C632        C633   1.406       .  A
C632        N638   1.346       .  A
C633        C634   1.405       .  A
C633        H642   1.082       .  S
C634        C637   1.382       .  A
N635        C636   1.352       .  A
N635        H645   1.045       .  S
C636        C637   1.396       .  A
C637        H643   1.082       .  S
N638        C639   1.356       .  A
N638        H646   1.044       .  S
C639        C640   1.391       .  A
C640        H644   1.083       .  S
C647        C652   1.385       .  A
C647        C648   1.405   1_455  A
C647        N653   1.346       .  A
C648        C649   1.405       .  A
C648        H659   1.082       .  S
C649        C658   1.380       .  A
C649        C650   1.385       .  A
C650        C651   1.398       .  A
C650        N656   1.340       .  A
C651        C652   1.397   1_655  A
C651        H660   1.083       .  S
C652        C655   1.370       .  A
N653        C654   1.356       .  A
N653        H663   1.044       .  S
C654        C655   1.391       .  A
C655        H661   1.083       .  S
N656        C657   1.353       .  A
N656        H664   1.045       .  S
C657        C658   1.395       .  A
C658        H662   1.082       .  S
C665        C670   1.385       .  A
C665        C666   1.401       .  A
C665        N671   1.342       .  A
C666        C667   1.400       .  A
C666        H677   1.083       .  S
C667        C676   1.373       .  A
C667        C668   1.384       .  A
C668        C669   1.406       .  A
C668        N674   1.345       .  A
C669        C670   1.405       .  A
C669        H678   1.082       .  S
C670        C673   1.381       .  A
N671        C672   1.355       .  A
N671        H681   1.045       .  S
C672        C673   1.396       .  A
C673        H679   1.082       .  S
N674        C675   1.357       .  A
N674        H682   1.044       .  S
C675        C676   1.393       .  A
C676        H680   1.080       .  S
C683        C688   1.382       .  A
C683        C684   1.407       .  A
C683        N689   1.345       .  A
C684        C685   1.406       .  A
C684        H695   1.082       .  S
C685        C694   1.380       .  A
C685        C686   1.383       .  A
C686        C687   1.404       .  A
C686        N692   1.344       .  A
C687        C688   1.402       .  A
C687        H696   1.082       .  S
C688        C691   1.379       .  A
N689        C690   1.359       .  A
N689        H699   1.045       .  S
C690        C691   1.399       .  A
C691        H697   1.081       .  S
N692        C693   1.358       .  A
N692        H700   1.043       .  S
C693        C694   1.400       .  A
C694        H698   1.082       .  S
C701        C706   1.385   1_545  A
C701        C702   1.403       .  A
C701        N707   1.342       .  A
C702        C703   1.402   1_545  A
C702        H713   1.082       .  S
C703        C712   1.377       .  A
C703        C704   1.383       .  A
C704        C705   1.407       .  A
C704        N710   1.346       .  A
C705        C706   1.406       .  A
C705        H714   1.082       .  S
C706        C709   1.382       .  A
N707        C708   1.354       .  A
N707        H717   1.045       .  S
C708        C709   1.396   1_545  A
C709        H715   1.082       .  S
N710        C711   1.359       .  A
N710        H718   1.044       .  S
C711        C712   1.395       .  A
C712        H716   1.081       .  S
C719        C724   1.384       .  A
C719        C720   1.410       .  A
C719        N725   1.349       .  A
C720        C721   1.410   1_655  A
C720        H731   1.082       .  S
C721        C730   1.386       .  A
C721        C722   1.384       .  A
C722        C723   1.396   1_455  A
C722        N728   1.338       .  A
C723        C724   1.395       .  A
C723        H732   1.083       .  S
C724        C727   1.368       .  A
N725        C726   1.359       .  A
N725        H735   1.044       .  S
C726        C727   1.393       .  A
C727        H733   1.082       .  S
N728        C729   1.353       .  A
N728        H736   1.045       .  S
C729        C730   1.399       .  A
C730        H734   1.082       .  S
C737        C742   1.385       .  A
C737        C738   1.402       .  A
C737        N743   1.342   1_565  A
C738        C739   1.401       .  A
C738        H749   1.082   1_565  S
C739        C748   1.377       .  A
C739        C740   1.384       .  A
C740        C741   1.407       .  A
C740        N746   1.345       .  A
C741        C742   1.405       .  A
C741        H750   1.082       .  S
C742        C745   1.382       .  A
N743        C744   1.355       .  A
N743        H753   1.045       .  S
C744        C745   1.396   1_545  A
C745        H751   1.082       .  S
N746        C747   1.358       .  A
N746        H754   1.044       .  S
C747        C748   1.394       .  A
C748        H752   1.082       .  S
C755        C760   1.384       .  A
C755        C756   1.406       .  A
C755        N761   1.346       .  A
C756        C757   1.405   1_655  A
C756        H767   1.082       .  S
C757        C766   1.381       .  A
C757        C758   1.384       .  A
C758        C759   1.400   1_455  A
C758        N764   1.340       .  A
C759        C760   1.399       .  A
C759        H768   1.083       .  S
C760        C763   1.372       .  A
N761        C762   1.356       .  A
N761        H771   1.044       .  S
C762        C763   1.395       .  A
C763        H769   1.082       .  S
N764        C765   1.355       .  A
N764        H772   1.044       .  S
C765        C766   1.396       .  A
C766        H770   1.082       .  S
C773        C778   1.383       .  A
C773        C774   1.404       .  A
C773        N779   1.346       .  A
C774        C775   1.404       .  A
C774        H785   1.082       .  S
C775        C784   1.379       .  A
C775        C776   1.382       .  A
C776        C777   1.408       .  A
C776        N782   1.347       .  A
C777        C778   1.408       .  A
C777        H786   1.082       .  S
C778        C781   1.381       .  A
N779        C780   1.358       .  A
N779        H789   1.043       .  S
C780        C781   1.401       .  A
C781        H787   1.082       .  S
N782        C783   1.360       .  A
N782        H790   1.045       .  S
C783        C784   1.400       .  A
C784        H788   1.081       .  S
C791        C796   1.384       .  A
C791        C792   1.402       .  A
C791        N797   1.341       .  A
C792        C793   1.400       .  A
C792        H803   1.082       .  S
C793        C802   1.376       .  A
C793        C794   1.384       .  A
C794        C795   1.408       .  A
C794        N800   1.347       .  A
C795        C796   1.407       .  A
C795        H804   1.082       .  S
C796        C799   1.384       .  A
N797        C798   1.355       .  A
N797        H807   1.043       .  S
C798        C799   1.399       .  A
C799        H805   1.082       .  S
N800        C801   1.357       .  A
N800        H808   1.044       .  S
C801        C802   1.394       .  A
C802        H806   1.083       .  S
C809        C814   1.384       .  A
C809        C810   1.405       .  A
C809        N815   1.343       .  A
C810        C811   1.403       .  A
C810        H821   1.082       .  S
C811        C820   1.381       .  A
C811        C812   1.384       .  A
C812        C813   1.406       .  A
C812        N818   1.344       .  A
C813        C814   1.404       .  A
C813        H822   1.082       .  S
C814        C817   1.382       .  A
N815        C816   1.356       .  A
N815        H825   1.044       .  S
C816        C817   1.398       .  A
C817        H823   1.082       .  S
N818        C819   1.356       .  A
N818        H826   1.045       .  S
C819        C820   1.395       .  A
C820        H824   1.082       .  S
C827        C832   1.382       .  A
C827        C828   1.410       .  A
C827        N833   1.350       .  A
C828        C829   1.410       .  A
C828        H839   1.082       .  S
C829        C838   1.385       .  A
C829        C830   1.382       .  A
C830        C831   1.406       .  A
C830        N836   1.346       .  A
C831        C832   1.406       .  A
C831        H840   1.082       .  S
C832        C835   1.381       .  A
N833        C834   1.362       .  A
N833        H843   1.043       .  S
C834        C835   1.400       .  A
C835        H841   1.082       .  S
N836        C837   1.358       .  A
N836        H844   1.045       .  S
C837        C838   1.404       .  A
C838        H842   1.081       .  S
C845        C850   1.384       .  A
C845        C846   1.407       .  A
C845        N851   1.348       .  A
C846        C847   1.407       .  A
C846        H857   1.082       .  S
C847        C856   1.381       .  A
C847        C848   1.384       .  A
C848        C849   1.407       .  A
C848        N854   1.348       .  A
C849        C850   1.407       .  A
C849        H858   1.082       .  S
C850        C853   1.382       .  A
N851        C852   1.357       .  A
N851        H861   1.044       .  S
C852        C853   1.399       .  A
C853        H859   1.082       .  S
N854        C855   1.357       .  A
N854        H862   1.045       .  S
C855        C856   1.397       .  A
C856        H860   1.082       .  S
C863        C868   1.385       .  A
C863        C864   1.397       .  A
C863        N869   1.339       .  A
C864        C865   1.397       .  A
C864        H875   1.083       .  S
C865        C874   1.370       .  A
C865        C866   1.384       .  A
C866        C867   1.411       .  A
C866        N872   1.351       .  A
C867        C868   1.411       .  A
C867        H876   1.082       .  S
C868        C871   1.387       .  A
N869        C870   1.352       .  A
N869        H879   1.045       .  S
C870        C871   1.400       .  A
C871        H877   1.082       .  S
N872        C873   1.359       .  A
N872        H880   1.044       .  S
C873        C874   1.393       .  A
C874        H878   1.082       .  S
C881        C886   1.384       .  A
C881        C882   1.406       .  A
C881        N887   1.344       .  A
C882        C883   1.405       .  A
C882        H893   1.082       .  S
C883        C892   1.381       .  A
C883        C884   1.385       .  A
C884        C885   1.400       .  A
C884        N890   1.339       .  A
C885        C886   1.398       .  A
C885        H894   1.082       .  S
C886        C889   1.374       .  A
N887        C888   1.358       .  A
N887        H897   1.044       .  S
C888        C889   1.392       .  A
C889        H895   1.082       .  S
N890        C891   1.353       .  A
N890        H898   1.045       .  S
C891        C892   1.396       .  A
C892        H896   1.082       .  S
C899        C904   1.383       .  A
C899        C900   1.403       .  A
C899        N905   1.343       .  A
C900        C901   1.402       .  A
C900        H911   1.082       .  S
C901        C910   1.377       .  A
C901        C902   1.383       .  A
C902        C903   1.409       .  A
C902        N908   1.348       .  A
C903        C904   1.408       .  A
C903        H912   1.082       .  S
C904        C907   1.383       .  A
N905        C906   1.356       .  A
N905        H915   1.045       .  S
C906        C907   1.403       .  A
C907        H913   1.081       .  S
N908        C909   1.361       .  A
N908        H916   1.043       .  S
C909        C910   1.397       .  A
C910        H914   1.082       .  S
C917        C922   1.385       .  A
C917        C918   1.400       .  A
C917        N923   1.341       .  A
C918        C919   1.399       .  A
C918        H929   1.083       .  S
C919        C928   1.372       .  A
C919        C920   1.384       .  A
C920        C921   1.406       .  A
C920        N926   1.346       .  A
C921        C922   1.405       .  A
C921        H930   1.082       .  S
C922        C925   1.380       .  A
N923        C924   1.355       .  A
N923        H933   1.045       .  S
C924        C925   1.395       .  A
C925        H931   1.082       .  S
N926        C927   1.356       .  A
N926        H934   1.044       .  S
C927        C928   1.394       .  A
C928        H932   1.082       .  S
C935        C940   1.384       .  A
C935        C936   1.404       .  A
C935        N941   1.344       .  A
C936        C937   1.404       .  A
C936        H947   1.082       .  S
C937        C946   1.379       .  A
C937        C938   1.385       .  A
C938        C939   1.405       .  A
C938        N944   1.345       .  A
C939        C940   1.404       .  A
C939        H948   1.082       .  S
C940        C943   1.379       .  A
N941        C942   1.355       .  A
N941        H951   1.044       .  S
C942        C943   1.396       .  A
C943        H949   1.082       .  S
N944        C945   1.356       .  A
N944        H952   1.045       .  S
C945        C946   1.395       .  A
C946        H950   1.082       .  S
C953        C958   1.385       .  A
C953        C954   1.407       .  A
C953        N959   1.346       .  A
C954        C955   1.406       .  A
C954        H965   1.082       .  S
C955        C964   1.384       .  A
C955        C956   1.385       .  A
C956        C957   1.398       .  A
C956        N962   1.337       .  A
C957        C958   1.396       .  A
C957        H966   1.083       .  S
C958        C961   1.372       .  A
N959        C960   1.357       .  A
N959        H969   1.045       .  S
C960        C961   1.391       .  A
C961        H967   1.083       .  S
N962        C963   1.352       .  A
N962        H970   1.045       .  S
C963        C964   1.397       .  A
C964        H968   1.082       .  S
C971        C976   1.385       .  A
C971        C972   1.399       .  A
C971        N977   1.340       .  A
C972        C973   1.398       .  A
C972        H983   1.083       .  S
C973        C982   1.372       .  A
C973        C974   1.385       .  A
C974        C975   1.408       .  A
C974        N980   1.348       .  A
C975        C976   1.407       .  A
C975        H984   1.082       .  S
C976        C979   1.384       .  A
N977        C978   1.353       .  A
N977        H987   1.045       .  S
C978        C979   1.397       .  A
C979        H985   1.082       .  S
N980        C981   1.357       .  A
N980        H988   1.044       .  S
C981        C982   1.392       .  A
C982        H986   1.083       .  S
C989        C994   1.385       .  A
C989        C990   1.401       .  A
C989        N995   1.341       .  A
C990        C991   1.400       .  A
C990       H1001   1.082       .  S
C991       C1000   1.375       .  A
C991        C992   1.385       .  A
C992        C993   1.407       .  A
C992        N998   1.346       .  A
C993        C994   1.406       .  A
C993       H1002   1.082       .  S
C994        C997   1.383       .  A
N995        C996   1.354       .  A
N995       H1005   1.045       .  S
C996        C997   1.397       .  A
C997       H1003   1.082       .  S
N998        C999   1.356       .  A
N998       H1006   1.044       .  S
C999       C1000   1.393       .  A
C1000      H1004   1.083       .  S
C1007      C1012   1.384       .  A
C1007      C1008   1.409       .  A
C1007      N1013   1.349       .  A
C1008      C1009   1.409       .  A
C1008      H1019   1.082       .  S
C1009      C1018   1.386       .  A
C1009      C1010   1.385       .  A
C1010      C1011   1.400       .  A
C1010      N1016   1.340       .  A
C1011      C1012   1.399       .  A
C1011      H1020   1.083       .  S
C1012      C1015   1.373       .  A
N1013      C1014   1.358       .  A
N1013      H1023   1.044       .  S
C1014      C1015   1.393       .  A
C1015      H1021   1.083       .  S
N1016      C1017   1.354       .  A
N1016      H1024   1.045       .  S
C1017      C1018   1.398       .  A
C1018      H1022   1.082       .  S
C1025      C1030   1.384       .  A
C1025      C1026   1.404       .  A
C1025      N1031   1.346       .  A
C1026      C1027   1.404       .  A
C1026      H1037   1.082       .  S
C1027      C1036   1.378       .  A
C1027      C1028   1.383       .  A
C1028      C1029   1.409       .  A
C1028      N1034   1.349       .  A
C1029      C1030   1.409       .  A
C1029      H1038   1.082       .  S
C1030      C1033   1.384       .  A
N1031      C1032   1.356       .  A
N1031      H1041   1.044       .  S
C1032      C1033   1.400       .  A
C1033      H1039   1.082       .  S
N1034      C1035   1.359       .  A
N1034      H1042   1.044       .  S
C1035      C1036   1.396       .  A
C1036      H1040   1.082       .  S
C1043      C1048   1.384       .  A
C1043      C1044   1.402       .  A
C1043      N1049   1.341       .  A
C1044      C1045   1.400       .  A
C1044      H1055   1.082       .  S
C1045      C1054   1.377       .  A
C1045      C1046   1.383       .  A
C1046      C1047   1.410       .  A
C1046      N1052   1.348       .  A
C1047      C1048   1.409       .  A
C1047      H1056   1.082       .  S
C1048      C1051   1.387       .  A
N1049      C1050   1.354       .  A
N1049      H1059   1.045       .  S
C1050      C1051   1.400       .  A
C1051      H1057   1.082       .  S
N1052      C1053   1.360       .  A
N1052      H1060   1.044       .  S
C1053      C1054   1.393       .  A
C1054      H1058   1.082       .  S
C1061      C1066   1.383       .  A
C1061      C1062   1.407       .  A
C1061      N1067   1.348       .  A
C1062      C1063   1.407       .  A
C1062      H1073   1.082       .  S
C1063      C1072   1.381       .  A
C1063      C1064   1.384       .  A
C1064      C1065   1.406       .  A
C1064      N1070   1.347       .  A
C1065      C1066   1.405       .  A
C1065      H1074   1.082       .  S
C1066      C1069   1.380       .  A
N1067      C1068   1.360       .  A
N1067      H1077   1.044       .  S
C1068      C1069   1.398       .  A
C1069      H1075   1.081       .  S
N1070      C1071   1.357       .  A
N1070      H1078   1.044       .  S
C1071      C1072   1.397       .  A
C1072      H1076   1.082       .  S
C1079      C1084   1.382       .  A
C1079      C1080   1.404       .  A
C1079      N1085   1.346       .  A
C1080      C1081   1.404   1_655  A
C1080      H1091   1.082       .  S
C1081      C1090   1.378       .  A
C1081      C1082   1.381       .  A
C1082      C1083   1.411   1_455  A
C1082      N1088   1.350       .  A
C1083      C1084   1.411       .  A
C1083      H1092   1.082       .  S
C1084      C1087   1.386       .  A
N1085      C1086   1.359       .  A
N1085      H1095   1.043       .  S
C1086      C1087   1.404       .  A
C1087      H1093   1.082       .  S
N1088      C1089   1.362       .  A
N1088      H1096   1.045       .  S
C1089      C1090   1.401       .  A
C1090      H1094   1.080       .  S
C1097      C1102   1.384       .  A
C1097      C1098   1.405       .  A
C1097      N1103   1.346       .  A
C1098      C1099   1.405       .  A
C1098      H1109   1.082       .  S
C1099      C1108   1.379       .  A
C1099      C1100   1.384       .  A
C1100      C1101   1.408       .  A
C1100      N1106   1.349       .  A
C1101      C1102   1.408       .  A
C1101      H1110   1.082       .  S
C1102      C1105   1.384       .  A
N1103      C1104   1.357       .  A
N1103      H1113   1.044       .  S
C1104      C1105   1.400       .  A
C1105      H1111   1.082       .  S
N1106      C1107   1.358       .  A
N1106      H1114   1.045       .  S
C1107      C1108   1.395       .  A
C1108      H1112   1.082       .  S
C1115      C1120   1.383       .  A
C1115      C1116   1.407       .  A
C1115      N1121   1.348       .  A
C1116      C1117   1.407       .  A
C1116      H1127   1.082       .  S
C1117      C1126   1.382       .  A
C1117      C1118   1.384       .  A
C1118      C1119   1.408       .  A
C1118      N1124   1.349       .  A
C1119      C1120   1.408       .  A
C1119      H1128   1.082       .  S
C1120      C1123   1.382       .  A
N1121      C1122   1.359       .  A
N1121      H1131   1.044       .  S
C1122      C1123   1.399       .  A
C1123      H1129   1.082       .  S
N1124      C1125   1.359       .  A
N1124      H1132   1.044       .  S
C1125      C1126   1.397       .  A
C1126      H1130   1.082       .  S
C1133      C1138   1.384       .  A
C1133      C1134   1.409       .  A
C1133      N1139   1.348       .  A
C1134      C1135   1.408       .  A
C1134      H1145   1.082       .  S
C1135      C1144   1.385       .  A
C1135      C1136   1.385       .  A
C1136      C1137   1.396       .  A
C1136      N1142   1.337       .  A
C1137      C1138   1.395       .  A
C1137      H1146   1.083       .  S
C1138      C1141   1.368       .  A
N1139      C1140   1.358       .  A
N1139      H1149   1.044       .  S
C1140      C1141   1.393       .  A
C1141      H1147   1.082       .  S
N1142      C1143   1.353       .  A
N1142      H1150   1.045       .  S
C1143      C1144   1.397       .  A
C1144      H1148   1.082       .  S
C1151      C1156   1.384       .  A
C1151      C1152   1.405       .  A
C1151      N1157   1.344       .  A
C1152      C1153   1.404       .  A
C1152      H1163   1.082       .  S
C1153      C1162   1.381       .  A
C1153      C1154   1.384       .  A
C1154      C1155   1.405       .  A
C1154      N1160   1.343       .  A
C1155      C1156   1.403       .  A
C1155      H1164   1.082       .  S
C1156      C1159   1.380       .  A
N1157      C1158   1.357       .  A
N1157      H1167   1.044       .  S
C1158      C1159   1.396       .  A
C1159      H1165   1.082       .  S
N1160      C1161   1.356       .  A
N1160      H1168   1.045       .  S
C1161      C1162   1.395       .  A
C1162      H1166   1.082       .  S
C1169      C1174   1.383       .  A
C1169      C1170   1.408       .  A
C1169      N1175   1.345       .  A
C1170      C1171   1.406       .  A
C1170      H1181   1.082       .  S
C1171      C1180   1.384       .  A
C1171      C1172   1.383       .  A
C1172      C1173   1.406       .  A
C1172      N1178   1.344       .  A
C1173      C1174   1.405       .  A
C1173      H1182   1.082       .  S
C1174      C1177   1.383       .  A
N1175      C1176   1.358       .  A
N1175      H1185   1.044       .  S
C1176      C1177   1.398       .  A
C1177      H1183   1.082       .  S
N1178      C1179   1.357       .  A
N1178      H1186   1.044       .  S
C1179      C1180   1.399       .  A
C1180      H1184   1.082       .  S
C1187      C1192   1.383       .  A
C1187      C1188   1.411       .  A
C1187      N1193   1.350       .  A
C1188      C1189   1.411       .  A
C1188      H1199   1.082       .  S
C1189      C1198   1.388       .  A
C1189      C1190   1.384       .  A
C1190      C1191   1.398       .  A
C1190      N1196   1.338       .  A
C1191      C1192   1.396       .  A
C1191      H1200   1.083       .  S
C1192      C1195   1.370       .  A
N1193      C1194   1.359       .  A
N1193      H1203   1.044       .  S
C1194      C1195   1.394       .  A
C1195      H1201   1.082       .  S
N1196      C1197   1.355       .  A
N1196      H1204   1.044       .  S
C1197      C1198   1.400       .  A
C1198      H1202   1.082       .  S
C1205      C1210   1.382       .  A
C1205      C1206   1.409       .  A
C1205      N1211   1.348       .  A
C1206      C1207   1.408   1_655  A
C1206      H1217   1.082       .  S
C1207      C1216   1.384       .  A
C1207      C1208   1.382       .  A
C1208      C1209   1.406   1_455  A
C1208      N1214   1.345       .  A
C1209      C1210   1.405       .  A
C1209      H1218   1.082       .  S
C1210      C1213   1.380       .  A
N1211      C1212   1.361       .  A
N1211      H1221   1.043       .  S
C1212      C1213   1.399       .  A
C1213      H1219   1.082       .  S
N1214      C1215   1.358       .  A
N1214      H1222   1.045       .  S
C1215      C1216   1.404       .  A
C1216      H1220   1.081       .  S
C1223      C1228   1.384       .  A
C1223      C1224   1.404       .  A
C1223      N1229   1.344       .  A
C1224      C1225   1.403       .  A
C1224      H1235   1.082       .  S
C1225      C1234   1.378       .  A
C1225      C1226   1.385       .  A
C1226      C1227   1.405       .  A
C1226      N1232   1.345       .  A
C1227      C1228   1.404       .  A
C1227      H1236   1.082       .  S
C1228      C1231   1.379       .  A
N1229      C1230   1.356       .  A
N1229      H1239   1.044       .  S
C1230      C1231   1.396       .  A
C1231      H1237   1.082       .  S
N1232      C1233   1.356       .  A
N1232      H1240   1.045       .  S
C1233      C1234   1.395       .  A
C1234      H1238   1.082       .  S
C1241      C1246   1.385       .  A
C1241      C1242   1.404       .  A
C1241      N1247   1.343       .  A
C1242      C1243   1.402       .  A
C1242      H1253   1.082       .  S
C1243      C1252   1.379       .  A
C1243      C1244   1.384       .  A
C1244      C1245   1.406       .  A
C1244      N1250   1.345       .  A
C1245      C1246   1.406       .  A
C1245      H1254   1.082       .  S
C1246      C1249   1.382       .  A
N1247      C1248   1.355       .  A
N1247      H1257   1.045       .  S
C1248      C1249   1.397       .  A
C1249      H1255   1.082       .  S
N1250      C1251   1.357       .  A
N1250      H1258   1.044       .  S
C1251      C1252   1.393       .  A
C1252      H1256   1.082       .  S
C1259      C1264   1.382       .  A
C1259      C1260   1.406       .  A
C1259      N1265   1.345       .  A
C1260      C1261   1.406       .  A
C1260      H1271   1.082       .  S
C1261      C1270   1.380       .  A
C1261      C1262   1.383       .  A
C1262      C1263   1.404       .  A
C1262      N1268   1.344       .  A
C1263      C1264   1.403       .  A
C1263      H1272   1.083       .  S
C1264      C1267   1.377       .  A
N1265      C1266   1.358       .  A
N1265      H1275   1.045       .  S
C1266      C1267   1.400       .  A
C1267      H1273   1.081       .  S
N1268      C1269   1.359       .  A
N1268      H1276   1.043       .  S
C1269      C1270   1.399       .  A
C1270      H1274   1.082       .  S
C1277      C1282   1.384       .  A
C1277      C1278   1.402   1_565  A
C1277      N1283   1.343       .  A
C1278      C1279   1.402       .  A
C1278      H1289   1.082       .  S
C1279      C1288   1.376       .  A
C1279      C1280   1.385   1_545  A
C1280      C1281   1.405       .  A
C1280      N1286   1.345       .  A
C1281      C1282   1.404       .  A
C1281      H1290   1.082       .  S
C1282      C1285   1.379       .  A
N1283      C1284   1.355       .  A
N1283      H1293   1.043       .  S
C1284      C1285   1.398       .  A
C1285      H1291   1.082       .  S
N1286      C1287   1.355   1_565  A
N1286      H1294   1.045       .  S
C1287      C1288   1.394       .  A
C1288      H1292   1.083       .  S
C1295      C1300   1.384       .  A
C1295      C1296   1.400       .  A
C1295      N1301   1.339       .  A
C1296      C1297   1.399       .  A
C1296      H1307   1.083       .  S
C1297      C1306   1.374       .  A
C1297      C1298   1.384       .  A
C1298      C1299   1.407       .  A
C1298      N1304   1.346       .  A
C1299      C1300   1.406       .  A
C1299      H1308   1.082       .  S
C1300      C1303   1.384       .  A
N1301      C1302   1.355       .  A
N1301      H1311   1.045       .  S
C1302      C1303   1.396       .  A
C1303      H1309   1.082       .  S
N1304      C1305   1.356       .  A
N1304      H1312   1.045       .  S
C1305      C1306   1.394       .  A
C1306      H1310   1.082       .  S
C1313      C1318   1.384       .  A
C1313      C1314   1.402       .  A
C1313      N1319   1.345       .  A
C1314      C1315   1.403       .  A
C1314      H1325   1.082       .  S
C1315      C1324   1.376       .  A
C1315      C1316   1.385       .  A
C1316      C1317   1.405       .  A
C1316      N1322   1.346       .  A
C1317      C1318   1.405       .  A
C1317      H1326   1.082       .  S
C1318      C1321   1.378       .  A
N1319      C1320   1.355       .  A
N1319      H1329   1.044       .  S
C1320      C1321   1.397       .  A
C1321      H1327   1.082       .  S
N1322      C1323   1.357       .  A
N1322      H1330   1.045       .  S
C1323      C1324   1.393       .  A
C1324      H1328   1.082       .  S
C1331      C1336   1.385       .  A
C1331      C1332   1.399       .  A
C1331      N1337   1.340       .  A
C1332      C1333   1.398       .  A
C1332      H1343   1.083       .  S
C1333      C1342   1.371       .  A
C1333      C1334   1.384       .  A
C1334      C1335   1.408       .  A
C1334      N1340   1.347       .  A
C1335      C1336   1.407       .  A
C1335      H1344   1.082       .  S
C1336      C1339   1.383       .  A
N1337      C1338   1.354       .  A
N1337      H1347   1.045       .  S
C1338      C1339   1.397       .  A
C1339      H1345   1.082       .  S
N1340      C1341   1.357       .  A
N1340      H1348   1.046       .  S
C1341      C1342   1.394       .  A
C1342      H1346   1.082       .  S
C1349      C1354   1.383       .  A
C1349      C1350   1.403       .  A
C1349      N1355   1.343       .  A
C1350      C1351   1.403       .  A
C1350      H1361   1.082       .  S
C1351      C1360   1.376       .  A
C1351      C1352   1.383       .  A
C1352      C1353   1.406       .  A
C1352      N1358   1.346       .  A
C1353      C1354   1.405       .  A
C1353      H1362   1.082       .  S
C1354      C1357   1.379       .  A
N1355      C1356   1.357       .  A
N1355      H1365   1.045       .  S
C1356      C1357   1.401       .  A
C1357      H1363   1.081       .  S
N1358      C1359   1.360       .  A
N1358      H1366   1.043       .  S
C1359      C1360   1.397       .  A
C1360      H1364   1.082       .  S
C1367      C1372   1.384       .  A
C1367      C1368   1.406       .  A
C1367      N1373   1.344       .  A
C1368      C1369   1.405       .  A
C1368      H1379   1.082       .  S
C1369      C1378   1.382       .  A
C1369      C1370   1.385   1_565  A
C1370      C1371   1.404       .  A
C1370      N1376   1.343       .  A
C1371      C1372   1.402   1_545  A
C1371      H1380   1.082       .  S
C1372      C1375   1.378       .  A
N1373      C1374   1.357       .  A
N1373      H1383   1.044       .  S
C1374      C1375   1.395       .  A
C1375      H1381   1.081       .  S
N1376      C1377   1.355       .  A
N1376      H1384   1.045       .  S
C1377      C1378   1.396   1_545  A
C1378      H1382   1.082       .  S
C1385      C1390   1.384       .  A
C1385      C1386   1.403   1_556  A
C1385      N1391   1.345       .  A
C1386      C1387   1.403   1_565  A
C1386      H1397   1.082       .  S
C1387      C1396   1.377       .  A
C1387      C1388   1.384   1_554  A
C1388      C1389   1.404       .  A
C1388      N1394   1.345   1_556  A
C1389      C1390   1.404   1_545  A
C1389      H1398   1.082       .  S
C1390      C1393   1.377       .  A
N1391      C1392   1.356       .  A
N1391      H1401   1.044       .  S
C1392      C1393   1.395       .  A
C1393      H1399   1.081       .  S
N1394      C1395   1.356       .  A
N1394      H1402   1.044   1_554  S
C1395      C1396   1.395       .  A
C1396      H1400   1.081       .  S
C1403      C1408   1.384       .  A
C1403      C1404   1.404   1_565  A
C1403      N1409   1.344       .  A
C1404      C1405   1.403       .  A
C1404      H1415   1.082       .  S
C1405      C1414   1.378   1_556  A
C1405      C1406   1.384   1_556  A
C1406      C1407   1.406   1_545  A
C1406      N1412   1.346       .  A
C1407      C1408   1.405   1_554  A
C1407      H1416   1.082       .  S
C1408      C1411   1.380       .  A
N1409      C1410   1.356       .  A
N1409      H1419   1.044       .  S
C1410      C1411   1.397       .  A
C1411      H1417   1.082       .  S
N1412      C1413   1.357       .  A
N1412      H1420   1.044       .  S
C1413      C1414   1.396       .  A
C1414      H1418   1.082   1_554  S
C1421      C1426   1.383       .  A
C1421      C1422   1.407       .  A
C1421      N1427   1.349       .  A
C1422      C1423   1.408   1_655  A
C1422      H1433   1.082       .  S
C1423      C1432   1.381       .  A
C1423      C1424   1.384       .  A
C1424      C1425   1.398   1_455  A
C1424      N1430   1.340       .  A
C1425      C1426   1.398       .  A
C1425      H1434   1.083       .  S
C1426      C1429   1.369       .  A
N1427      C1428   1.358       .  A
N1427      H1437   1.044       .  S
C1428      C1429   1.396       .  A
C1429      H1435   1.082       .  S
N1430      C1431   1.355       .  A
N1430      H1438   1.044       .  S
C1431      C1432   1.398       .  A
C1432      H1436   1.082       .  S
C1439      C1444   1.383   1_556  A
C1439      C1440   1.409       .  A
C1439      N1445   1.350   1_556  A
C1440      C1441   1.409       .  A
C1440      H1451   1.082       .  S
C1441      C1450   1.383       .  A
C1441      C1442   1.384       .  A
C1442      C1443   1.405   1_556  A
C1442      N1448   1.346       .  A
C1443      C1444   1.405       .  A
C1443      H1452   1.082       .  S
C1444      C1447   1.379       .  A
N1445      C1446   1.359       .  A
N1445      H1455   1.044   1_554  S
C1446      C1447   1.398       .  A
C1447      H1453   1.081       .  S
N1448      C1449   1.356       .  A
N1448      H1456   1.044       .  S
C1449      C1450   1.399       .  A
C1450      H1454   1.081       .  S
C1457      C1462   1.382       .  A
C1457      C1458   1.407       .  A
C1457      N1463   1.347       .  A
C1458      C1459   1.406       .  A
C1458      H1469   1.082       .  S
C1459      C1468   1.380       .  A
C1459      C1460   1.383       .  A
C1460      C1461   1.406       .  A
C1460      N1466   1.346       .  A
C1461      C1462   1.405       .  A
C1461      H1470   1.082       .  S
C1462      C1465   1.380       .  A
N1463      C1464   1.359       .  A
N1463      H1473   1.045       .  S
C1464      C1465   1.402       .  A
C1465      H1471   1.081       .  S
N1466      C1467   1.359       .  A
N1466      H1474   1.044       .  S
C1467      C1468   1.400       .  A
C1468      H1472   1.082       .  S
C1475      C1480   1.384       .  A
C1475      C1476   1.403   1_556  A
C1475      N1481   1.344       .  A
C1476      C1477   1.403       .  A
C1476      H1487   1.082       .  S
C1477      C1486   1.376       .  A
C1477      C1478   1.384   1_554  A
C1478      C1479   1.404       .  A
C1478      N1484   1.345   1_556  A
C1479      C1480   1.404       .  A
C1479      H1488   1.082       .  S
C1480      C1483   1.378       .  A
N1481      C1482   1.355       .  A
N1481      H1491   1.044       .  S
C1482      C1483   1.396       .  A
C1483      H1489   1.080       .  S
N1484      C1485   1.356       .  A
N1484      H1492   1.044   1_554  S
C1485      C1486   1.395       .  A
C1486      H1490   1.081       .  S
C1493      C1498   1.383       .  A
C1493      C1494   1.403       .  A
C1493      N1499   1.342       .  A
C1494      C1495   1.402       .  A
C1494      H1505   1.083       .  S
C1495      C1504   1.375       .  A
C1495      C1496   1.383       .  A
C1496      C1497   1.405       .  A
C1496      N1502   1.346       .  A
C1497      C1498   1.404       .  A
C1497      H1506   1.082       .  S
C1498      C1501   1.379       .  A
N1499      C1500   1.356       .  A
N1499      H1509   1.045       .  S
C1500      C1501   1.400       .  A
C1501      H1507   1.081       .  S
N1502      C1503   1.359       .  A
N1502      H1510   1.043       .  S
C1503      C1504   1.397       .  A
C1504      H1508   1.083       .  S
C1511      C1516   1.384       .  A
C1511      C1512   1.407   1_455  A
C1511      N1517   1.347       .  A
C1512      C1513   1.407       .  A
C1512      H1523   1.082       .  S
C1513      C1522   1.382       .  A
C1513      C1514   1.385       .  A
C1514      C1515   1.397       .  A
C1514      N1520   1.338       .  A
C1515      C1516   1.396   1_655  A
C1515      H1524   1.083       .  S
C1516      C1519   1.369       .  A
N1517      C1518   1.357       .  A
N1517      H1527   1.044       .  S
C1518      C1519   1.392       .  A
C1519      H1525   1.082       .  S
N1520      C1521   1.353       .  A
N1520      H1528   1.045       .  S
C1521      C1522   1.397       .  A
C1522      H1526   1.082       .  S
C1529      C1534   1.385   1_545  A
C1529      C1530   1.404       .  A
C1529      N1535   1.346       .  A
C1530      C1531   1.404       .  A
C1530      H1541   1.082       .  S
C1531      C1540   1.378       .  A
C1531      C1532   1.384       .  A
C1532      C1533   1.404   1_545  A
C1532      N1538   1.345       .  A
C1533      C1534   1.404       .  A
C1533      H1542   1.082       .  S
C1534      C1537   1.378       .  A
N1535      C1536   1.355   1_545  A
N1535      H1545   1.045       .  S
C1536      C1537   1.396       .  A
C1537      H1543   1.083       .  S
N1538      C1539   1.357       .  A
N1538      H1546   1.044       .  S
C1539      C1540   1.397       .  A
C1540      H1544   1.082       .  S
C1547      C1552   1.384       .  A
C1547      C1548   1.400       .  A
C1547      N1553   1.341       .  A
C1548      C1549   1.399   1_545  A
C1548      H1559   1.082   1_545  S
C1549      C1558   1.374       .  A
C1549      C1550   1.384   1_565  A
C1550      C1551   1.407       .  A
C1550      N1556   1.347       .  A
C1551      C1552   1.407       .  A
C1551      H1560   1.082       .  S
C1552      C1555   1.382       .  A
N1553      C1554   1.354       .  A
N1553      H1563   1.044       .  S
C1554      C1555   1.399       .  A
C1555      H1561   1.082       .  S
N1556      C1557   1.357   1_545  A
N1556      H1564   1.045       .  S
C1557      C1558   1.392       .  A
C1558      H1562   1.083       .  S
C1565      C1570   1.385       .  A
C1565      C1566   1.405       .  A
C1565      N1571   1.347       .  A
C1566      C1567   1.405   1_655  A
C1566      H1577   1.082       .  S
C1567      C1576   1.380       .  A
C1567      C1568   1.385       .  A
C1568      C1569   1.400   1_455  A
C1568      N1574   1.341       .  A
C1569      C1570   1.399       .  A
C1569      H1578   1.083       .  S
C1570      C1573   1.371       .  A
N1571      C1572   1.356       .  A
N1571      H1581   1.044       .  S
C1572      C1573   1.393       .  A
C1573      H1579   1.083       .  S
N1574      C1575   1.354       .  A
N1574      H1582   1.045       .  S
C1575      C1576   1.395       .  A
C1576      H1580   1.082       .  S
C1583      C1588   1.385       .  A
C1583      C1584   1.401       .  A
C1583      N1589   1.341       .  A
C1584      C1585   1.400       .  A
C1584      H1595   1.082       .  S
C1585      C1594   1.374       .  A
C1585      C1586   1.384       .  A
C1586      C1587   1.406       .  A
C1586      N1592   1.345       .  A
C1587      C1588   1.405       .  A
C1587      H1596   1.082       .  S
C1588      C1591   1.382       .  A
N1589      C1590   1.354       .  A
N1589      H1599   1.045       .  S
C1590      C1591   1.396       .  A
C1591      H1597   1.082       .  S
N1592      C1593   1.358       .  A
N1592      H1600   1.044       .  S
C1593      C1594   1.394       .  A
C1594      H1598   1.081       .  S
C1601      C1606   1.385       .  A
C1601      C1602   1.395       .  A
C1601      N1607   1.336       .  A
C1602      C1603   1.394       .  A
C1602      H1613   1.083       .  S
C1603      C1612   1.368       .  A
C1603      C1604   1.385       .  A
C1604      C1605   1.409       .  A
C1604      N1610   1.348       .  A
C1605      C1606   1.408       .  A
C1605      H1614   1.082       .  S
C1606      C1609   1.385       .  A
N1607      C1608   1.351       .  A
N1607      H1617   1.045       .  S
C1608      C1609   1.398       .  A
C1609      H1615   1.082       .  S
N1610      C1611   1.358       .  A
N1610      H1618   1.044       .  S
C1611      C1612   1.389       .  A
C1612      H1616   1.083       .  S
C1619      C1624   1.384       .  A
C1619      C1620   1.404       .  A
C1619      N1625   1.345       .  A
C1620      C1621   1.403       .  A
C1620      H1631   1.082       .  S
C1621      C1630   1.377       .  A
C1621      C1622   1.383       .  A
C1622      C1623   1.408       .  A
C1622      N1628   1.347       .  A
C1623      C1624   1.407       .  A
C1623      H1632   1.082       .  S
C1624      C1627   1.383       .  A
N1625      C1626   1.356       .  A
N1625      H1635   1.045       .  S
C1626      C1627   1.397       .  A
C1627      H1633   1.082       .  S
N1628      C1629   1.359       .  A
N1628      H1636   1.044       .  S
C1629      C1630   1.395       .  A
C1630      H1634   1.081       .  S
C1637      C1642   1.385       .  A
C1637      C1638   1.398       .  A
C1637      N1643   1.337       .  A
C1638      C1639   1.396   1_655  A
C1638      H1649   1.083       .  S
C1639      C1648   1.373       .  A
C1639      C1640   1.384       .  A
C1640      C1641   1.408   1_455  A
C1640      N1646   1.346       .  A
C1641      C1642   1.407       .  A
C1641      H1650   1.082       .  S
C1642      C1645   1.386       .  A
N1643      C1644   1.352       .  A
N1643      H1653   1.045       .  S
C1644      C1645   1.398       .  A
C1645      H1651   1.082       .  S
N1646      C1647   1.357       .  A
N1646      H1654   1.044       .  S
C1647      C1648   1.392       .  A
C1648      H1652   1.083       .  S
C1655      C1660   1.385       .  A
C1655      C1656   1.400       .  A
C1655      N1661   1.341       .  A
C1656      C1657   1.400       .  A
C1656      H1667   1.083       .  S
C1657      C1666   1.373       .  A
C1657      C1658   1.385       .  A
C1658      C1659   1.407       .  A
C1658      N1664   1.348       .  A
C1659      C1660   1.406       .  A
C1659      H1668   1.082       .  S
C1660      C1663   1.382       .  A
N1661      C1662   1.354       .  A
N1661      H1671   1.045       .  S
C1662      C1663   1.396       .  A
C1663      H1669   1.082       .  S
N1664      C1665   1.357       .  A
N1664      H1672   1.044       .  S
C1665      C1666   1.393       .  A
C1666      H1670   1.083       .  S
C1673      C1678   1.384       .  A
C1673      C1674   1.403       .  A
C1673      N1679   1.342       .  A
C1674      C1675   1.401       .  A
C1674      H1685   1.082       .  S
C1675      C1684   1.378       .  A
C1675      C1676   1.384       .  A
C1676      C1677   1.405       .  A
C1676      N1682   1.344       .  A
C1677      C1678   1.404       .  A
C1677      H1686   1.082       .  S
C1678      C1681   1.382       .  A
N1679      C1680   1.355       .  A
N1679      H1689   1.045       .  S
C1680      C1681   1.396       .  A
C1681      H1687   1.082       .  S
N1682      C1683   1.357       .  A
N1682      H1690   1.044       .  S
C1683      C1684   1.395       .  A
C1684      H1688   1.082       .  S
C1691      C1696   1.385       .  A
C1691      C1692   1.396       .  A
C1691      N1697   1.336       .  A
C1692      C1693   1.394       .  A
C1692      H1703   1.083       .  S
C1693      C1702   1.368       .  A
C1693      C1694   1.384       .  A
C1694      C1695   1.409       .  A
C1694      N1700   1.348       .  A
C1695      C1696   1.409       .  A
C1695      H1704   1.082       .  S
C1696      C1699   1.385       .  A
N1697      C1698   1.353       .  A
N1697      H1707   1.045       .  S
C1698      C1699   1.398       .  A
C1699      H1705   1.082       .  S
N1700      C1701   1.359       .  A
N1700      H1708   1.044       .  S
C1701      C1702   1.391       .  A
C1702      H1706   1.082       .  S
C1709      C1714   1.384       .  A
C1709      C1710   1.407       .  A
C1709      N1715   1.348       .  A
C1710      C1711   1.407       .  A
C1710      H1721   1.082       .  S
C1711      C1720   1.381       .  A
C1711      C1712   1.384       .  A
C1712      C1713   1.402       .  A
C1712      N1718   1.343       .  A
C1713      C1714   1.401       .  A
C1713      H1722   1.082       .  S
C1714      C1717   1.376       .  A
N1715      C1716   1.357       .  A
N1715      H1725   1.045       .  S
C1716      C1717   1.394       .  A
C1717      H1723   1.082       .  S
N1718      C1719   1.355       .  A
N1718      H1726   1.044       .  S
C1719      C1720   1.398       .  A
C1720      H1724   1.082       .  S
C1727      C1732   1.382       .  A
C1727      C1728   1.407       .  A
C1727      N1733   1.346       .  A
C1728      C1729   1.407       .  A
C1728      H1739   1.082       .  S
C1729      C1738   1.383       .  A
C1729      C1730   1.382       .  A
C1730      C1731   1.408       .  A
C1730      N1736   1.346       .  A
C1731      C1732   1.406       .  A
C1731      H1740   1.082       .  S
C1732      C1735   1.382       .  A
N1733      C1734   1.361       .  A
N1733      H1743   1.043       .  S
C1734      C1735   1.399       .  A
C1735      H1741   1.082       .  S
N1736      C1737   1.359       .  A
N1736      H1744   1.045       .  S
C1737      C1738   1.403       .  A
C1738      H1742   1.081       .  S
C1745      C1750   1.384       .  A
C1745      C1746   1.406       .  A
C1745      N1751   1.347       .  A
C1746      C1747   1.405       .  A
C1746      H1757   1.082       .  S
C1747      C1756   1.381       .  A
C1747      C1748   1.383       .  A
C1748      C1749   1.406       .  A
C1748      N1754   1.346       .  A
C1749      C1750   1.406       .  A
C1749      H1758   1.082       .  S
C1750      C1753   1.381       .  A
N1751      C1752   1.356       .  A
N1751      H1761   1.045       .  S
C1752      C1753   1.397       .  A
C1753      H1759   1.082       .  S
N1754      C1755   1.358       .  A
N1754      H1762   1.044       .  S
C1755      C1756   1.398       .  A
C1756      H1760   1.082       .  S
C1763      C1768   1.382       .  A
C1763      C1764   1.406       .  A
C1763      N1769   1.346       .  A
C1764      C1765   1.406       .  A
C1764      H1775   1.082       .  S
C1765      C1774   1.379       .  A
C1765      C1766   1.383       .  A
C1766      C1767   1.406       .  A
C1766      N1772   1.347       .  A
C1767      C1768   1.406       .  A
C1767      H1776   1.082       .  S
C1768      C1771   1.381       .  A
N1769      C1770   1.359       .  A
N1769      H1779   1.045       .  S
C1770      C1771   1.402       .  A
C1771      H1777   1.081       .  S
N1772      C1773   1.360       .  A
N1772      H1780   1.043       .  S
C1773      C1774   1.400       .  A
C1774      H1778   1.082       .  S
C1781      C1786   1.385       .  A
C1781      C1782   1.397       .  A
C1781      N1787   1.337       .  A
C1782      C1783   1.396       .  A
C1782      H1793   1.083       .  S
C1783      C1792   1.369       .  A
C1783      C1784   1.385       .  A
C1784      C1785   1.407       .  A
C1784      N1790   1.346       .  A
C1785      C1786   1.406       .  A
C1785      H1794   1.082       .  S
C1786      C1789   1.382       .  A
N1787      C1788   1.353       .  A
N1787      H1797   1.045       .  S
C1788      C1789   1.396       .  A
C1789      H1795   1.082       .  S
N1790      C1791   1.356       .  A
N1790      H1798   1.045       .  S
C1791      C1792   1.393       .  A
C1792      H1796   1.082       .  S
C1799      C1804   1.384       .  A
C1799      C1800   1.407       .  A
C1799      N1805   1.347       .  A
C1800      C1801   1.407       .  A
C1800      H1811   1.082       .  S
C1801      C1810   1.382       .  A
C1801      C1802   1.384       .  A
C1802      C1803   1.405       .  A
C1802      N1808   1.346       .  A
C1803      C1804   1.405       .  A
C1803      H1812   1.082       .  S
C1804      C1807   1.379       .  A
N1805      C1806   1.357       .  A
N1805      H1815   1.044       .  S
C1806      C1807   1.397       .  A
C1807      H1813   1.082       .  S
N1808      C1809   1.356       .  A
N1808      H1816   1.045       .  S
C1809      C1810   1.398       .  A
C1810      H1814   1.082       .  S
C1817      C1822   1.385       .  A
C1817      C1818   1.406       .  A
C1817      N1823   1.346       .  A
C1818      C1819   1.406       .  A
C1818      H1829   1.082       .  S
C1819      C1828   1.382       .  A
C1819      C1820   1.386       .  A
C1820      C1821   1.396       .  A
C1820      N1826   1.337       .  A
C1821      C1822   1.395       .  A
C1821      H1830   1.083       .  S
C1822      C1825   1.369       .  A
N1823      C1824   1.356       .  A
N1823      H1833   1.044       .  S
C1824      C1825   1.390       .  A
C1825      H1831   1.083       .  S
N1826      C1827   1.352       .  A
N1826      H1834   1.045       .  S
C1827      C1828   1.396       .  A
C1828      H1832   1.082       .  S
C1835      C1840   1.385       .  A
C1835      C1836   1.401       .  A
C1835      N1841   1.339       .  A
C1836      C1837   1.399       .  A
C1836      H1847   1.083       .  S
C1837      C1846   1.375       .  A
C1837      C1838   1.385       .  A
C1838      C1839   1.404       .  A
C1838      N1844   1.343       .  A
C1839      C1840   1.403       .  A
C1839      H1848   1.082       .  S
C1840      C1843   1.381       .  A
N1841      C1842   1.354       .  A
N1841      H1851   1.045       .  S
C1842      C1843   1.394       .  A
C1843      H1849   1.082       .  S
N1844      C1845   1.355       .  A
N1844      H1852   1.045       .  S
C1845      C1846   1.393       .  A
C1846      H1850   1.083       .  S
C1853      C1858   1.385       .  A
C1853      C1854   1.403       .  A
C1853      N1859   1.345       .  A
C1854      C1855   1.403       .  A
C1854      H1865   1.082       .  S
C1855      C1864   1.378       .  A
C1855      C1856   1.385       .  A
C1856      C1857   1.399       .  A
C1856      N1862   1.340       .  A
C1857      C1858   1.399       .  A
C1857      H1866   1.083       .  S
C1858      C1861   1.371       .  A
N1859      C1860   1.355       .  A
N1859      H1869   1.045       .  S
C1860      C1861   1.392       .  A
C1861      H1867   1.083       .  S
N1862      C1863   1.354       .  A
N1862      H1870   1.045       .  S
C1863      C1864   1.393       .  A
C1864      H1868   1.082       .  S
C1871      C1876   1.385       .  A
C1871      C1872   1.401       .  A
C1871      N1877   1.341       .  A
C1872      C1873   1.400       .  A
C1872      H1883   1.083       .  S
C1873      C1882   1.373       .  A
C1873      C1874   1.385       .  A
C1874      C1875   1.406       .  A
C1874      N1880   1.346       .  A
C1875      C1876   1.405       .  A
C1875      H1884   1.082       .  S
C1876      C1879   1.381       .  A
N1877      C1878   1.354       .  A
N1877      H1887   1.045       .  S
C1878      C1879   1.395       .  A
C1879      H1885   1.082       .  S
N1880      C1881   1.356       .  A
N1880      H1888   1.044       .  S
C1881      C1882   1.393       .  A
C1882      H1886   1.083       .  S
C1889      C1894   1.383       .  A
C1889      C1890   1.406       .  A
C1889      N1895   1.346       .  A
C1890      C1891   1.405       .  A
C1890      H1901   1.082       .  S
C1891      C1900   1.381       .  A
C1891      C1892   1.383       .  A
C1892      C1893   1.407       .  A
C1892      N1898   1.346       .  A
C1893      C1894   1.407       .  A
C1893      H1902   1.082       .  S
C1894      C1897   1.382       .  A
N1895      C1896   1.357       .  A
N1895      H1905   1.044       .  S
C1896      C1897   1.399       .  A
C1897      H1903   1.082       .  S
N1898      C1899   1.358       .  A
N1898      H1906   1.044       .  S
C1899      C1900   1.397       .  A
C1900      H1904   1.082       .  S
C1907      C1912   1.384       .  A
C1907      C1908   1.403       .  A
C1907      N1913   1.345       .  A
C1908      C1909   1.403       .  A
C1908      H1919   1.082       .  S
C1909      C1918   1.377       .  A
C1909      C1910   1.384       .  A
C1910      C1911   1.407       .  A
C1910      N1916   1.347       .  A
C1911      C1912   1.407       .  A
C1911      H1920   1.082       .  S
C1912      C1915   1.382       .  A
N1913      C1914   1.355       .  A
N1913      H1923   1.044       .  S
C1914      C1915   1.399       .  A
C1915      H1921   1.082       .  S
N1916      C1917   1.357       .  A
N1916      H1924   1.045       .  S
C1917      C1918   1.394       .  A
C1918      H1922   1.083       .  S
C1925      C1930   1.383       .  A
C1925      C1926   1.409       .  A
C1925      N1931   1.348       .  A
C1926      C1927   1.408       .  A
C1926      H1937   1.082       .  S
C1927      C1936   1.385       .  A
C1927      C1928   1.383       .  A
C1928      C1929   1.407       .  A
C1928      N1934   1.346       .  A
C1929      C1930   1.406       .  A
C1929      H1938   1.082       .  S
C1930      C1933   1.382       .  A
N1931      C1932   1.359       .  A
N1931      H1941   1.044       .  S
C1932      C1933   1.399       .  A
C1933      H1939   1.082       .  S
N1934      C1935   1.358       .  A
N1934      H1942   1.044       .  S
C1935      C1936   1.400       .  A
C1936      H1940   1.082       .  S
C1943      C1948   1.383       .  A
C1943      C1944   1.406       .  A
C1943      N1949   1.347       .  A
C1944      C1945   1.406   1_655  A
C1944      H1955   1.082       .  S
C1945      C1954   1.381       .  A
C1945      C1946   1.382       .  A
C1946      C1947   1.408   1_455  A
C1946      N1952   1.347       .  A
C1947      C1948   1.408       .  A
C1947      H1956   1.082       .  S
C1948      C1951   1.382       .  A
N1949      C1950   1.360       .  A
N1949      H1959   1.043       .  S
C1950      C1951   1.401       .  A
C1951      H1957   1.082       .  S
N1952      C1953   1.360       .  A
N1952      H1960   1.045       .  S
C1953      C1954   1.401       .  A
C1954      H1958   1.080       .  S
C1961      C1966   1.383       .  A
C1961      C1962   1.409       .  A
C1961      N1967   1.347       .  A
C1962      C1963   1.408       .  A
C1962      H1973   1.082       .  S
C1963      C1972   1.384       .  A
C1963      C1964   1.384       .  A
C1964      C1965   1.403       .  A
C1964      N1970   1.343       .  A
C1965      C1966   1.402       .  A
C1965      H1974   1.082       .  S
C1966      C1969   1.377       .  A
N1967      C1968   1.359       .  A
N1967      H1977   1.044       .  S
C1968      C1969   1.395       .  A
C1969      H1975   1.082       .  S
N1970      C1971   1.355       .  A
N1970      H1978   1.045       .  S
C1971      C1972   1.398       .  A
C1972      H1976   1.082       .  S
C1979      C1984   1.384       .  A
C1979      C1980   1.403       .  A
C1979      N1985   1.344       .  A
C1980      C1981   1.403       .  A
C1980      H1991   1.082       .  S
C1981      C1990   1.377       .  A
C1981      C1982   1.384       .  A
C1982      C1983   1.405       .  A
C1982      N1988   1.345       .  A
C1983      C1984   1.405       .  A
C1983      H1992   1.082       .  S
C1984      C1987   1.378       .  A
N1985      C1986   1.356       .  A
N1985      H1995   1.044       .  S
C1986      C1987   1.397       .  A
C1987      H1993   1.081       .  S
N1988      C1989   1.357       .  A
N1988      H1996   1.044       .  S
C1989      C1990   1.395       .  A
C1990      H1994   1.082       .  S
C1997      C2002   1.385       .  A
C1997      C1998   1.396       .  A
C1997      N2003   1.337       .  A
C1998      C1999   1.394       .  A
C1998      H2009   1.083       .  S
C1999      C2008   1.368       .  A
C1999      C2000   1.384       .  A
C2000      C2001   1.412       .  A
C2000      N2006   1.350       .  A
C2001      C2002   1.411       .  A
C2001      H2010   1.082       .  S
C2002      C2005   1.388       .  A
N2003      C2004   1.352       .  A
N2003      H2013   1.045       .  S
C2004      C2005   1.400       .  A
C2005      H2011   1.082       .  S
N2006      C2007   1.359       .  A
N2006      H2014   1.044       .  S
C2007      C2008   1.392       .  A
C2008      H2012   1.082       .  S
C2015      C2020   1.385       .  A
C2015      C2016   1.402       .  A
C2015      N2021   1.343       .  A
C2016      C2017   1.402       .  A
C2016      H2027   1.083       .  S
C2017      C2026   1.375       .  A
C2017      C2018   1.383       .  A
C2018      C2019   1.408       .  A
C2018      N2024   1.348       .  A
C2019      C2020   1.407       .  A
C2019      H2028   1.082       .  S
C2020      C2023   1.383       .  A
N2021      C2022   1.355       .  A
N2021      H2031   1.045       .  S
C2022      C2023   1.397       .  A
C2023      H2029   1.082       .  S
N2024      C2025   1.359       .  A
N2024      H2032   1.044       .  S
C2025      C2026   1.395       .  A
C2026      H2030   1.081       .  S
C2033      C2038   1.383       .  A
C2033      C2034   1.406       .  A
C2033      N2039   1.348       .  A
C2034      C2035   1.406       .  A
C2034      H2045   1.082       .  S
C2035      C2044   1.379       .  A
C2035      C2036   1.383       .  A
C2036      C2037   1.407       .  A
C2036      N2042   1.349       .  A
C2037      C2038   1.407       .  A
C2037      H2046   1.082       .  S
C2038      C2041   1.380       .  A
N2039      C2040   1.358       .  A
N2039      H2049   1.044       .  S
C2040      C2041   1.398       .  A
C2041      H2047   1.081       .  S
N2042      C2043   1.358       .  A
N2042      H2050   1.044       .  S
C2043      C2044   1.398       .  A
C2044      H2048   1.081       .  S
C2051      C2056   1.382       .  A
C2051      C2052   1.407       .  A
C2051      N2057   1.347       .  A
C2052      C2053   1.407   1_655  A
C2052      H2063   1.082       .  S
C2053      C2062   1.379       .  A
C2053      C2054   1.383       .  A
C2054      C2055   1.408   1_455  A
C2054      N2060   1.349       .  A
C2055      C2056   1.407       .  A
C2055      H2064   1.082       .  S
C2056      C2059   1.383       .  A
N2057      C2058   1.359       .  A
N2057      H2067   1.045       .  S
C2058      C2059   1.402       .  A
C2059      H2065   1.081       .  S
N2060      C2061   1.359       .  A
N2060      H2068   1.043       .  S
C2061      C2062   1.401       .  A
C2062      H2066   1.083       .  S
C2069      C2074   1.385       .  A
C2069      C2070   1.398       .  A
C2069      N2075   1.339       .  A
C2070      C2071   1.397       .  A
C2070      H2081   1.083       .  S
C2071      C2080   1.370       .  A
C2071      C2072   1.384       .  A
C2072      C2073   1.408       .  A
C2072      N2078   1.348       .  A
C2073      C2074   1.408       .  A
C2073      H2082   1.082       .  S
C2074      C2077   1.383       .  A
N2075      C2076   1.354       .  A
N2075      H2085   1.045       .  S
C2076      C2077   1.397       .  A
C2077      H2083   1.082       .  S
N2078      C2079   1.357       .  A
N2078      H2086   1.045       .  S
C2079      C2080   1.393       .  A
C2080      H2084   1.082       .  S
C2087      C2092   1.385       .  A
C2087      C2088   1.406       .  A
C2087      N2093   1.347       .  A
C2088      C2089   1.405       .  A
C2088      H2099   1.082       .  S
C2089      C2098   1.381       .  A
C2089      C2090   1.384       .  A
C2090      C2091   1.404       .  A
C2090      N2096   1.344       .  A
C2091      C2092   1.404       .  A
C2091      H2100   1.082       .  S
C2092      C2095   1.378       .  A
N2093      C2094   1.356       .  A
N2093      H2103   1.045       .  S
C2094      C2095   1.395       .  A
C2095      H2101   1.082       .  S
N2096      C2097   1.356       .  A
N2096      H2104   1.044       .  S
C2097      C2098   1.397       .  A
C2098      H2102   1.082       .  S
C2105      C2110   1.384       .  A
C2105      C2106   1.407       .  A
C2105      N2111   1.346       .  A
C2106      C2107   1.406   1_545  A
C2106      H2117   1.082       .  S
C2107      C2116   1.382       .  A
C2107      C2108   1.384       .  A
C2108      C2109   1.404       .  A
C2108      N2114   1.344       .  A
C2109      C2110   1.404   1_565  A
C2109      H2118   1.082       .  S
C2110      C2113   1.379       .  A
N2111      C2112   1.357       .  A
N2111      H2121   1.046       .  S
C2112      C2113   1.396       .  A
C2113      H2119   1.080       .  S
N2114      C2115   1.355       .  A
N2114      H2122   1.047       .  S
C2115      C2116   1.398       .  A
C2116      H2120   1.082       .  S
C2123      C2128   1.385       .  A
C2123      C2124   1.402       .  A
C2123      N2129   1.342   1_545  A
C2124      C2125   1.401       .  A
C2124      H2135   1.082   1_545  S
C2125      C2134   1.375       .  A
C2125      C2126   1.384       .  A
C2126      C2127   1.403       .  A
C2126      N2132   1.343       .  A
C2127      C2128   1.403       .  A
C2127      H2136   1.082       .  S
C2128      C2131   1.378       .  A
N2129      C2130   1.354       .  A
N2129      H2139   1.045       .  S
C2130      C2131   1.394   1_565  A
C2131      H2137   1.082       .  S
N2132      C2133   1.356       .  A
N2132      H2140   1.045       .  S
C2133      C2134   1.393       .  A
C2134      H2138   1.080       .  S
C2141      C2146   1.383       .  A
C2141      C2142   1.406       .  A
C2141      N2147   1.344       .  A
C2142      C2143   1.405       .  A
C2142      H2153   1.082       .  S
C2143      C2152   1.382       .  A
C2143      C2144   1.384       .  A
C2144      C2145   1.404       .  A
C2144      N2150   1.343       .  A
C2145      C2146   1.403       .  A
C2145      H2154   1.082       .  S
C2146      C2149   1.380       .  A
N2147      C2148   1.357       .  A
N2147      H2157   1.044       .  S
C2148      C2149   1.397       .  A
C2149      H2155   1.082       .  S
N2150      C2151   1.355       .  A
N2150      H2158   1.044       .  S
C2151      C2152   1.397       .  A
C2152      H2156   1.082       .  S
C2159      C2164   1.383       .  A
C2159      C2160   1.403       .  A
C2159      N2165   1.342       .  A
C2160      C2161   1.402       .  A
C2160      H2171   1.082       .  S
C2161      C2170   1.376       .  A
C2161      C2162   1.383       .  A
C2162      C2163   1.405       .  A
C2162      N2168   1.345       .  A
C2163      C2164   1.404       .  A
C2163      H2172   1.082       .  S
C2164      C2167   1.379       .  A
N2165      C2166   1.357       .  A
N2165      H2175   1.045       .  S
C2166      C2167   1.400       .  A
C2167      H2173   1.081       .  S
N2168      C2169   1.360       .  A
N2168      H2176   1.043       .  S
C2169      C2170   1.397       .  A
C2170      H2174   1.082       .  S
C2177      C2182   1.384       .  A
C2177      C2178   1.403       .  A
C2177      N2183   1.343       .  A
C2178      C2179   1.402       .  A
C2178      H2189   1.082       .  S
C2179      C2188   1.378       .  A
C2179      C2180   1.385       .  A
C2180      C2181   1.405       .  A
C2180      N2186   1.345       .  A
C2181      C2182   1.404       .  A
C2181      H2190   1.082       .  S
C2182      C2185   1.379       .  A
N2183      C2184   1.357       .  A
N2183      H2193   1.044       .  S
C2184      C2185   1.397       .  A
C2185      H2191   1.081       .  S
N2186      C2187   1.356       .  A
N2186      H2194   1.045       .  S
C2187      C2188   1.393       .  A
C2188      H2192   1.082       .  S
C2195      C2200   1.384       .  A
C2195      C2196   1.404       .  A
C2195      N2201   1.343       .  A
C2196      C2197   1.403       .  A
C2196      H2207   1.082       .  S
C2197      C2206   1.379       .  A
C2197      C2198   1.384       .  A
C2198      C2199   1.405       .  A
C2198      N2204   1.344       .  A
C2199      C2200   1.404       .  A
C2199      H2208   1.082       .  S
C2200      C2203   1.379       .  A
N2201      C2202   1.356       .  A
N2201      H2211   1.044       .  S
C2202      C2203   1.396       .  A
C2203      H2209   1.082       .  S
N2204      C2205   1.356       .  A
N2204      H2212   1.044       .  S
C2205      C2206   1.396       .  A
C2206      H2210   1.082       .  S
C2213      C2218   1.383       .  A
C2213      C2214   1.409       .  A
C2213      N2219   1.349       .  A
C2214      C2215   1.409       .  A
C2214      H2225   1.082       .  S
C2215      C2224   1.385       .  A
C2215      C2216   1.384       .  A
C2216      C2217   1.399       .  A
C2216      N2222   1.340       .  A
C2217      C2218   1.398       .  A
C2217      H2226   1.083       .  S
C2218      C2221   1.370       .  A
N2219      C2220   1.358       .  A
N2219      H2229   1.044       .  S
C2220      C2221   1.395       .  A
C2221      H2227   1.082       .  S
N2222      C2223   1.355       .  A
N2222      H2230   1.044       .  S
C2223      C2224   1.399       .  A
C2224      H2228   1.082       .  S
C2231      C2236   1.384       .  A
C2231      C2232   1.404       .  A
C2231      N2237   1.345       .  A
C2232      C2233   1.404       .  A
C2232      H2243   1.082       .  S
C2233      C2242   1.379       .  A
C2233      C2234   1.385       .  A
C2234      C2235   1.404       .  A
C2234      N2240   1.345       .  A
C2235      C2236   1.403       .  A
C2235      H2244   1.082       .  S
C2236      C2239   1.377       .  A
N2237      C2238   1.356       .  A
N2237      H2247   1.044       .  S
C2238      C2239   1.396       .  A
C2239      H2245   1.082       .  S
N2240      C2241   1.355       .  A
N2240      H2248   1.044       .  S
C2241      C2242   1.396       .  A
C2242      H2246   1.082       .  S
C2249      C2254   1.383       .  A
C2249      C2250   1.406   1_545  A
C2249      N2255   1.344       .  A
C2250      C2251   1.404       .  A
C2250      H2261   1.082       .  S
C2251      C2260   1.381       .  A
C2251      C2252   1.384       .  A
C2252      C2253   1.405   1_565  A
C2252      N2258   1.344       .  A
C2253      C2254   1.404       .  A
C2253      H2262   1.082       .  S
C2254      C2257   1.381       .  A
N2255      C2256   1.357       .  A
N2255      H2265   1.044       .  S
C2256      C2257   1.398       .  A
C2257      H2263   1.082       .  S
N2258      C2259   1.356       .  A
N2258      H2266   1.044       .  S
C2259      C2260   1.396       .  A
C2260      H2264   1.082       .  S
C2267      C2272   1.384       .  A
C2267      C2268   1.406       .  A
C2267      N2273   1.347       .  A
C2268      C2269   1.406       .  A
C2268      H2279   1.082       .  S
C2269      C2278   1.381       .  A
C2269      C2270   1.384       .  A
C2270      C2271   1.400       .  A
C2270      N2276   1.341       .  A
C2271      C2272   1.399       .  A
C2271      H2280   1.083       .  S
C2272      C2275   1.372       .  A
N2273      C2274   1.356       .  A
N2273      H2283   1.044       .  S
C2274      C2275   1.397       .  A
C2275      H2281   1.082       .  S
N2276      C2277   1.356       .  A
N2276      H2284   1.044       .  S
C2277      C2278   1.397       .  A
C2278      H2282   1.082       .  S
C2285      C2290   1.383       .  A
C2285      C2286   1.406       .  A
C2285      N2291   1.346       .  A
C2286      C2287   1.405       .  A
C2286      H2297   1.082       .  S
C2287      C2296   1.379       .  A
C2287      C2288   1.383       .  A
C2288      C2289   1.403       .  A
C2288      N2294   1.344       .  A
C2289      C2290   1.402       .  A
C2289      H2298   1.083       .  S
C2290      C2293   1.376       .  A
N2291      C2292   1.358       .  A
N2291      H2301   1.045       .  S
C2292      C2293   1.400       .  A
C2293      H2299   1.081       .  S
N2294      C2295   1.358       .  A
N2294      H2302   1.044       .  S
C2295      C2296   1.398       .  A
C2296      H2300   1.082       .  S
C2303      C2308   1.385   1_545  A
C2303      C2304   1.404       .  A
C2303      N2309   1.346       .  A
C2304      C2305   1.404       .  A
C2304      H2315   1.082       .  S
C2305      C2314   1.377       .  A
C2305      C2306   1.383       .  A
C2306      C2307   1.403       .  A
C2306      N2312   1.344       .  A
C2307      C2308   1.403   1_545  A
C2307      H2316   1.082   1_545  S
C2308      C2311   1.377       .  A
N2309      C2310   1.356   1_545  A
N2309      H2319   1.045       .  S
C2310      C2311   1.395       .  A
C2311      H2317   1.082       .  S
N2312      C2313   1.356       .  A
N2312      H2320   1.044       .  S
C2313      C2314   1.398       .  A
C2314      H2318   1.082       .  S
