geometry optimzed in LAMMPS
_audit_creation_date              2020-11-30 
_audit_creation_method            'lammps2cif' 
_symmetry_space_group_name_H-M    'P1' 
_symmetry_Int_Tables_number       1 
_symmetry_cell_setting            triclinic 
loop_ 
_symmetry_equiv_pos_as_xyz 
  x,y,z 
_cell_length_a                    41.87212816925969 
_cell_length_b                    41.990149109903655 
_cell_length_c                    31.952964820703166 
_cell_angle_alpha                 89.91990041675857 
_cell_angle_beta                  90.0601194366886 
_cell_angle_gamma                 68.5898372068208 
loop_ 
_atom_site_label 
_atom_site_type_symbol 
_atom_site_fract_x 
_atom_site_fract_y 
_atom_site_fract_z 
_atom_site_charge 
O1          O  0.09333733  0.46706248  0.07989170    -0.73880
O2          O  0.09054234  0.01535952  0.04504311    -0.52790
C3          C  0.10507250  0.49051309  0.07062938     0.79850
O4          O  0.02397182  0.40620238  0.41778850    -0.58480
O5          O  0.47686839  0.40888231  0.45519903    -0.51510
C6          C  0.49983507  0.39526154  0.42726755     0.71860
O7          O  0.09309373  0.46791847  0.42135085    -0.73040
O8          O  0.08851223  0.01769194  0.45417136    -0.53600
C9          C  0.10341361  0.49269355  0.42919676     0.77870
O10         O  0.02622866  0.40523387  0.08333367    -0.58180
O11         O  0.47903684  0.40748239  0.04633883    -0.51300
C12         C  0.50277905  0.39356579  0.07349118     0.74460
Zr13       Zr  0.04396670  0.45218148  0.06333326     2.54710
O14         O  0.09450729  0.39988305  0.06683832    -0.78750
O15         O  0.04042102  0.45701713  0.13928083    -0.92170
Zr16       Zr  0.04423454  0.45167692  0.43871084     2.64680
O17         O  0.09501479  0.39944655  0.43761110    -0.97120
O18         O  0.04200703  0.45517998  0.36259734    -0.79180
O19         O  0.06355628  0.46964316  0.00096001    -0.82540
O20         O  0.02641904  0.43257502  0.50113978    -2.17250
O21         O  0.41427576  0.01722715  0.08465122    -0.65930
O22         O  0.41648082  0.47013819  0.04715618    -0.50490
C23         C  0.40318024  0.99338821  0.07477403     0.72840
O24         O  0.47880421  0.08302486  0.41943742    -0.58840
O25         O  0.02693600  0.07969769  0.45531783    -0.50810
C26         C  0.00307784  0.09393781  0.42845170     0.74640
O27         O  0.41455638  0.01577672  0.41686152    -0.70230
O28         O  0.41666288  0.46956088  0.45557196    -0.48910
C29         C  0.40324111  0.99203735  0.42702566     0.76030
O30         O  0.47774869  0.08397086  0.08091149    -0.65560
O31         O  0.02678990  0.07979584  0.04605560    -0.52760
C32         C  0.00227969  0.09435129  0.07187113     0.74410
Zr33       Zr  0.46036676  0.03624584  0.06280774     2.77540
O34         O  0.40848314  0.08742450  0.06118076    -0.96310
O35         O  0.46294856  0.03583583  0.13892422    -0.77130
Zr36       Zr  0.46038941  0.03579798  0.43836374     2.70070
O37         O  0.40807453  0.08646260  0.43916527    -0.78380
O38         O  0.46310137  0.03524569  0.36225158    -0.97460
Zr39       Zr  0.03983702  0.03045245  0.00074002     2.21500
Zr40       Zr  0.46545792  0.45723566  0.50136220     2.11130
O41         O  0.44098087  0.01815703  0.50075154    -2.46150
O42         O  0.47877955  0.05500072  0.00043796    -0.78170
O43         O  0.48324884  0.47554675  0.06458301    -0.70370
O44         O  0.02124178  0.01231922  0.43758629    -2.31320
O45         O  0.02125542  0.01281614  0.06415407    -2.27530
O46         O  0.48346502  0.47515188  0.43787011    -0.72130
H47         H  0.03442464  0.40789480  0.50118260     0.79870
H48         H  0.02966175  0.02062288  0.41339620     0.80960
H49         H  0.41620849  0.02616337  0.00063323     0.83180
H50         H  0.02979135  0.02115471  0.08821859     0.80790
H51         H  0.04443008  0.47719566  0.35579679     0.43830
H52         H  0.46581842  0.01159714  0.35438631     0.42800
H53         H  0.40972498  0.09853971  0.46519512     0.42470
H54         H  0.39193660  0.08103723  0.04424025     0.40410
H55         H  0.47048191  0.01134337  0.14664300     0.43540
H56         H  0.04664575  0.47703045  0.14596828     0.38320
H57         H  0.10355163  0.39654267  0.03790176     0.44440
H58         H  0.08909858  0.38310979  0.45545163     0.40860
H59         H  0.39941222  0.08960329  0.09007127     0.45780
H60         H  0.06008869  0.43709527  0.14950104     0.44500
H61         H  0.09572332  0.39050903  0.40882695     0.44630
H62         H  0.43955565  0.04939905  0.35317601     0.44990
C63         C  0.00533215  0.27111132  0.15880831     0.04540
C64         C  0.00338483  0.24299638  0.13716454    -0.11610
C65         C  0.00005535  0.21542153  0.15902778     0.02040
C66         C  0.99733219  0.21709869  0.20290759    -0.10130
C67         C  0.00141438  0.24421620  0.22564155     0.04530
C68         C  0.00596083  0.27096632  0.20262314    -0.09550
H69         H  0.00503129  0.24253574  0.10332514     0.10130
H70         H  0.99178391  0.19701494  0.21880367     0.07660
H71         H  0.00972914  0.29218869  0.21804963     0.07510
C72         C  0.99735844  0.27492055  0.33929575     0.04540
C73         C  0.00126143  0.24474694  0.36131547    -0.11610
C74         C  0.00494869  0.21448440  0.33977666     0.02040
C75         C  0.00700705  0.21419684  0.29588729    -0.10130
C76         C  0.00106445  0.24448888  0.27280807     0.04530
C77         C  0.99511092  0.27494052  0.29541996    -0.09550
H78         H  0.00139419  0.24481353  0.39516781     0.10130
H79         H  0.01330932  0.18990289  0.28024202     0.07660
H80         H  0.98871364  0.29913361  0.27942503     0.07510
C81         C  0.28311075  0.48978240  0.16021169     0.04540
C82         C  0.25621722  0.48524528  0.13802272    -0.11610
C83         C  0.22769952  0.48363588  0.15919724     0.02040
C84         C  0.22709964  0.48360817  0.20306354    -0.10130
C85         C  0.25365462  0.48836755  0.22652230     0.04530
C86         C  0.28061785  0.49315136  0.20395680    -0.09550
H87         H  0.25713257  0.48316561  0.10423125     0.10130
H88         H  0.20541240  0.48032607  0.21800189     0.07660
H89         H  0.29990004  0.50006369  0.21974313     0.07510
C90         C  0.28365103  0.48604486  0.34046586     0.04540
C91         C  0.25441351  0.48735323  0.36257315    -0.11610
C92         C  0.22450084  0.48986189  0.34099569     0.02040
C93         C  0.22378914  0.49141572  0.29705969    -0.10130
C94         C  0.25351741  0.48842252  0.27384444     0.04530
C95         C  0.28351898  0.48515514  0.29665951    -0.09550
H96         H  0.25459106  0.48743780  0.39650030     0.10130
H97         H  0.19976000  0.49485707  0.28179774     0.07660
H98         H  0.30745933  0.48161840  0.28121592     0.07510
C99         C  0.48463584  0.13619145  0.36893286     0.25010
C100        C  0.00374181  0.12485905  0.40599923    -0.23100
C101        C  0.02369280  0.14328211  0.42097073     0.19920
C102        C  0.02458590  0.17200919  0.39935390     0.24950
C103        C  0.00520458  0.18338534  0.36257857    -0.23040
C104        C  0.48512152  0.16516246  0.34782581     0.19850
F105        F  0.46513314  0.17583104  0.31324704    -0.13000
F106        F  0.46555514  0.11913021  0.35253728    -0.15360
F107        F  0.04499945  0.18825319  0.41409302    -0.15370
F108        F  0.04218215  0.13385418  0.45685653    -0.13000
C109        C  0.47890231  0.34619768  0.41994130     0.25010
C110        C  0.99852350  0.36480370  0.40452548    -0.23100
C111        C  0.01708367  0.35377836  0.36713373     0.19920
C112        C  0.01659795  0.32474923  0.34628211     0.24950
C113        C  0.99697859  0.30622109  0.36160650    -0.23090
C114        C  0.47794929  0.31746310  0.39856031     0.19850
F115        F  0.45789565  0.30100893  0.41380380    -0.13000
F116        F  0.46089994  0.35536197  0.45612569    -0.15360
F117        F  0.03623650  0.31427406  0.31149065    -0.15370
F118        F  0.03576021  0.37109590  0.35030637    -0.13000
C119        C  0.48262330  0.15763606  0.07762238     0.25010
C120        C  0.00230631  0.12517181  0.09323944    -0.23100
C121        C  0.02117671  0.12223048  0.13018727     0.19920
C122        C  0.02048044  0.15152986  0.15145389     0.24950
C123        C  0.00042154  0.18436785  0.13632330    -0.23040
C124        C  0.48150324  0.18706729  0.09905105     0.19850
F125        F  0.46125036  0.21809618  0.08385873    -0.13000
F126        F  0.46435170  0.16076061  0.04170602    -0.15360
F127        F  0.04006887  0.14771948  0.18636174    -0.15370
F128        F  0.04018579  0.09089654  0.14573904    -0.13000
C129        C  0.47588061  0.32184235  0.11384389     0.25010
C130        C  0.00536223  0.30147417  0.13566917    -0.23100
C131        C  0.03408005  0.31102164  0.13673009     0.19920
C132        C  0.03340496  0.34068557  0.11625452     0.24950
C133        C  0.00363014  0.36171187  0.09470385    -0.23040
C134        C  0.47487817  0.35175976  0.09368908     0.19850
F135        F  0.44541616  0.37127550  0.07410315    -0.13000
F136        F  0.44761621  0.31322969  0.11316147    -0.15360
F137        F  0.06216598  0.34844520  0.11726982    -0.15370
F138        F  0.06294535  0.29136678  0.15733089    -0.13000
C139        C  0.33229296  0.46151621  0.39096079     0.25010
C140        C  0.31408879  0.48735432  0.36278002    -0.23100
C141        C  0.32512971  0.01467781  0.35551421     0.19920
C142        C  0.35390955  0.01632613  0.37623797     0.24950
C143        C  0.37257672  0.49037265  0.40460332    -0.23040
C144        C  0.36133161  0.46279731  0.41149648     0.19850
F145        F  0.37848458  0.43668811  0.43777221    -0.13000
F146        F  0.32236824  0.43457610  0.39789545    -0.15360
F147        F  0.36309470  0.04363644  0.36864520    -0.15370
F148        F  0.30751653  0.04024944  0.32877821    -0.13000
C149        C  0.13491882  0.02166204  0.38652132     0.25010
C150        C  0.13464305  0.49236413  0.40765844    -0.23100
C151        C  0.16427023  0.46250356  0.40742172     0.19920
C152        C  0.19374767  0.46194461  0.38636502     0.24950
C153        C  0.19374477  0.49097298  0.36445635    -0.23040
C154        C  0.16416204  0.02082032  0.36463498     0.19850
F155        F  0.16373947  0.04915887  0.34376816    -0.13000
F156        F  0.10651783  0.05072523  0.38599635    -0.15360
F157        F  0.22212539  0.43286452  0.38664434    -0.15370
F158        F  0.16479651  0.43407039  0.42817895    -0.13000
C159        C  0.34707772  0.47370671  0.15479313     0.25010
C160        C  0.31397104  0.49095999  0.13805964    -0.23100
C161        C  0.31085787  0.50899476  0.10002335     0.19920
C162        C  0.34006794  0.50950007  0.07928357     0.24950
C163        C  0.37269174  0.49278181  0.09658937    -0.23040
C164        C  0.37609399  0.47500805  0.13441923     0.19850
F165        F  0.40762558  0.45854968  0.15133910    -0.13000
F166        F  0.35154031  0.45478108  0.19032784    -0.15360
F167        F  0.33654988  0.02647881  0.04233689    -0.15370
F168        F  0.27958769  0.52685242  0.08330670    -0.13000
C169        C  0.17456681  0.01628793  0.11993619     0.25010
C170        C  0.19721624  0.48481719  0.13528084    -0.23100
C171        C  0.19036955  0.45506124  0.12807827     0.19920
C172        C  0.16082597  0.45678790  0.10621031     0.24950
C173        C  0.13745329  0.48850398  0.09145947    -0.23040
C174        C  0.14489655  0.01820772  0.09825687     0.19850
F175        F  0.12294554  0.04930909  0.08528121    -0.13000
F176        F  0.18090322  0.04533673  0.12685542    -0.15360
F177        F  0.15533790  0.42730567  0.09916230    -0.15370
F178        F  0.21236527  0.42434814  0.14213169    -0.13000
O179        O  0.09336083  0.46704043  0.57988970    -0.73880
O180        O  0.09056766  0.01533689  0.54504123    -0.52790
C181        C  0.10509772  0.49048961  0.57062633     0.79850
O182        O  0.02395941  0.40621483  0.91778262    -0.58480
O183        O  0.47685733  0.40889137  0.95519340    -0.51510
C184        C  0.49982383  0.39527223  0.92726121     0.71860
O185        O  0.09307183  0.46793978  0.92134752    -0.73040
O186        O  0.08848817  0.01771380  0.95416820    -0.53600
C187        C  0.10339016  0.49271589  0.92919294     0.77870
O188        O  0.02624323  0.40522095  0.58333232    -0.58180
O189        O  0.47904873  0.40747408  0.54633974    -0.51300
C190        C  0.50279193  0.39355516  0.57349000     0.74460
Zr191      Zr  0.04398547  0.45216601  0.56333442     2.54710
O192        O  0.09452255  0.39986411  0.56683662    -0.78750
O193        O  0.04044319  0.45699993  0.63928225    -0.92170
Zr194      Zr  0.04421719  0.45169214  0.93870855     2.64680
O195        O  0.09500113  0.39946537  0.93760686    -0.97120
O196        O  0.04198818  0.45519691  0.86259514    -0.79180
O197        O  0.06357614  0.46962621  0.50096129    -0.82540
O198        O  0.02640483  0.43258717  0.00113771    -2.17250
O199        O  0.41429979  0.01721786  0.58466441    -0.65930
O200        O  0.41649471  0.47013541  0.54716267    -0.50490
C201        C  0.40319946  0.99338267  0.57478566     0.72840
O202        O  0.47877705  0.08304038  0.91943687    -0.58840
O203        O  0.02690767  0.07971548  0.95531835    -0.50810
C204        C  0.00304910  0.09395516  0.92845275     0.74640
O205        O  0.41453456  0.01578664  0.91686643    -0.70230
O206        O  0.41664694  0.46956737  0.95557390    -0.48910
C207        C  0.40322142  0.99204593  0.92703120     0.76030
O208        O  0.47777672  0.08395617  0.58091361    -0.65560
O209        O  0.02681863  0.07977808  0.54605737    -0.52760
C210        C  0.00230886  0.09433477  0.57187296     0.74410
Zr211      Zr  0.46039002  0.03623421  0.56281141     2.77540
O212        O  0.40850813  0.08741459  0.56118574    -0.96310
O213        O  0.46297605  0.03582557  0.63892766    -0.77130
Zr214      Zr  0.46036840  0.03580889  0.93836081     2.70070
O215        O  0.40805150  0.08647155  0.93915538    -0.78380
O216        O  0.46308252  0.03525119  0.86224875    -0.97460
Zr217      Zr  0.03986043  0.03043555  0.50074139     2.21500
Zr218      Zr  0.46544401  0.45724355  0.00135911     2.11130
O219        O  0.44096213  0.01816500  0.00074781    -2.46150
O220        O  0.47880329  0.05498757  0.50044073    -0.78170
O221        O  0.48326753  0.47553528  0.56458552    -0.70370
O222        O  0.02122075  0.01233440  0.93758441    -2.31320
O223        O  0.02127856  0.01280064  0.56415615    -2.27530
O224        O  0.48344783  0.47516267  0.93786688    -0.72130
H225        H  0.03441220  0.40790686  0.00118068     0.79870
H226        H  0.02963983  0.02063922  0.91339454     0.80960
H227        H  0.41622714  0.02615713  0.50063739     0.83180
H228        H  0.02981600  0.02113803  0.58822040     0.80790
H229        H  0.04441032  0.47721308  0.85579505     0.43830
H230        H  0.46579789  0.01160259  0.85438592     0.42800
H231        H  0.40969546  0.09854618  0.96518989     0.42470
H232        H  0.39195939  0.08102724  0.54424955     0.40410
H233        H  0.47051245  0.01133305  0.64664711     0.43540
H234        H  0.04667001  0.47701200  0.64596960     0.38320
H235        H  0.10356776  0.39652511  0.53790044     0.44440
H236        H  0.08908691  0.38312676  0.95544635     0.40860
H237        H  0.39943975  0.08959572  0.59007766     0.45780
H238        H  0.06011027  0.43707683  0.64950102     0.44500
H239        H  0.09571057  0.39052854  0.90882221     0.44630
H240        H  0.43953744  0.04940537  0.85317180     0.44990
C241        C  0.00534224  0.27110226  0.65880317     0.04540
C242        C  0.00340010  0.24298475  0.63716109    -0.11610
C243        C  0.00007015  0.21541096  0.65902574     0.02040
C244        C  0.99734132  0.21709175  0.70290510    -0.10130
C245        C  0.00141736  0.24421317  0.72563786     0.04530
C246        C  0.00596482  0.27096184  0.70261780    -0.09550
H247        H  0.00505085  0.24252135  0.60332197     0.10130
H248        H  0.99179318  0.19700791  0.71880097     0.07660
H249        H  0.00972953  0.29218674  0.71804231     0.07510
C250        C  0.99734933  0.27492978  0.83928901     0.04540
C251        C  0.00124644  0.24475909  0.86131195    -0.11610
C252        C  0.00493224  0.21449562  0.83977659     0.02040
C253        C  0.00699635  0.21420293  0.79588787    -0.10130
C254        C  0.00106060  0.24449162  0.77280452     0.04530
C255        C  0.99510749  0.27494529  0.79541274    -0.09550
H256        H  0.00137554  0.24482855  0.89516427     0.10130
H257        H  0.01329775  0.18990739  0.78024690     0.07660
H258        H  0.98871423  0.29913663  0.77941500     0.07510
C259        C  0.28312871  0.48977310  0.66022274     0.04540
C260        C  0.25624258  0.48522617  0.63802776    -0.11610
C261        C  0.22772361  0.48361238  0.65919521     0.02040
C262        C  0.22711524  0.48358953  0.70306100    -0.10130
C263        C  0.25366162  0.48835888  0.72652574     0.04530
C264        C  0.28062668  0.49314633  0.70396732    -0.09550
H265        H  0.25716400  0.48314320  0.60423670     0.10130
H266        H  0.20542762  0.48030449  0.71799493     0.07660
H267        H  0.29990202  0.50006585  0.71975925     0.07510
C268        C  0.28363304  0.48605139  0.84047555     0.04540
C269        C  0.25439047  0.48736656  0.86257588    -0.11610
C270        C  0.22448116  0.48987442  0.84099117     0.02040
C271        C  0.22377840  0.49142130  0.79705437    -0.10130
C272        C  0.25351286  0.48842112  0.77384729     0.04530
C273        C  0.28351030  0.48515388  0.79666983    -0.09550
H274        H  0.25456183  0.48745642  0.89650306     0.10130
H275        H  0.19975204  0.49486247  0.78178508     0.07660
H276        H  0.30745426  0.48161203  0.78123195     0.07510
C277        C  0.48460656  0.13621097  0.86893612     0.25010
C278        C  0.00371193  0.12487760  0.90600266    -0.23100
C279        C  0.02366360  0.14329951  0.92097559     0.19920
C280        C  0.02456020  0.17202476  0.89935824     0.24950
C281        C  0.00518148  0.18340047  0.86258125    -0.23040
C282        C  0.48509578  0.16518037  0.84782844     0.19850
F283        F  0.46510932  0.17584961  0.81324823    -0.13000
F284        F  0.46552387  0.11915182  0.85254054    -0.15360
F285        F  0.04497531  0.18826684  0.91409794    -0.15370
F286        F  0.04215104  0.13387170  0.95686279    -0.13000
C287        C  0.47888960  0.34620971  0.91993133     0.25010
C288        C  0.99851296  0.36481438  0.90451804    -0.23100
C289        C  0.01707515  0.35378791  0.86712777     0.19920
C290        C  0.01658954  0.32475873  0.84627562     0.24950
C291        C  0.99696825  0.30623176  0.86159798    -0.23090
C292        C  0.47793640  0.31747558  0.89854970     0.19850
F293        F  0.45787998  0.30102356  0.91379080    -0.13000
F294        F  0.46088499  0.35537490  0.95611404    -0.15360
F295        F  0.03623028  0.31428226  0.81148611    -0.15370
F296        F  0.03575381  0.37110416  0.85030265    -0.13000
C297        C  0.48265079  0.15761912  0.57761973     0.25010
C298        C  0.00233531  0.12515617  0.59323889    -0.23100
C299        C  0.02120302  0.12221757  0.63018853     0.19920
C300        C  0.02050187  0.15151868  0.65145526     0.24950
C301        C  0.00044110  0.18435526  0.63632247    -0.23040
C302        C  0.48152606  0.18705181  0.59904816     0.19850
F303        F  0.46127154  0.21807931  0.58385373    -0.13000
F304        F  0.46438159  0.16074092  0.54170185    -0.15360
F305        F  0.04008691  0.14771157  0.68636559    -0.15370
F306        F  0.04021348  0.09088481  0.64574235    -0.13000
C307        C  0.47589083  0.32183367  0.61384082     0.25010
C308        C  0.00537343  0.30146333  0.63566248    -0.23100
C309        C  0.03409306  0.31100770  0.63672031     0.19920
C310        C  0.03341859  0.34067166  0.61624598     0.24950
C311        C  0.00364252  0.36170087  0.59470004    -0.23040
C312        C  0.47488897  0.35175121  0.59368723     0.19850
F313        F  0.44542615  0.37126951  0.57410486    -0.13000
F314        F  0.44762514  0.31322307  0.61316109    -0.15360
F315        F  0.06218120  0.34842863  0.61725814    -0.15370
F316        F  0.06295910  0.29135022  0.65731777    -0.13000
C317        C  0.33227267  0.46152428  0.89097251     0.25010
C318        C  0.31406647  0.48736387  0.86279493    -0.23100
C319        C  0.32510367  0.01469007  0.85553238     0.19920
C320        C  0.35388382  0.01633856  0.87625428     0.24950
C321        C  0.37255493  0.49038233  0.90461409    -0.23040
C322        C  0.36131187  0.46280547  0.91150645     0.19850
F323        F  0.37846779  0.43669467  0.93777863    -0.13000
F324        F  0.32235005  0.43458247  0.89790455    -0.15360
F325        F  0.36306592  0.04365116  0.86866432    -0.15370
F326        F  0.30748752  0.04026302  0.82879958    -0.13000
C327        C  0.13489553  0.02168109  0.88651020     0.25010
C328        C  0.13461965  0.49238600  0.90765414    -0.23100
C329        C  0.16424652  0.46252523  0.90742112     0.19920
C330        C  0.19372383  0.46196305  0.88636190     0.24950
C331        C  0.19372157  0.49098826  0.86444659    -0.23040
C332        C  0.16413901  0.02083605  0.86462100     0.19850
F333        F  0.16371727  0.04917201  0.84374886    -0.13000
F334        F  0.10649478  0.05074445  0.88598185    -0.15360
F335        F  0.22210143  0.43288288  0.88664652    -0.15370
F336        F  0.16477265  0.43409481  0.92818475    -0.13000
C337        C  0.34709556  0.47371476  0.65481753     0.25010
C338        C  0.31398945  0.49095714  0.63807622    -0.23100
C339        C  0.31087730  0.50898436  0.60003408     0.19920
C340        C  0.34008745  0.50948883  0.57929348     0.24950
C341        C  0.37271076  0.49277863  0.59660437    -0.23040
C342        C  0.37611191  0.47501625  0.63444292     0.19850
F343        F  0.40764273  0.45856732  0.65136955    -0.13000
F344        F  0.35155814  0.45479796  0.69035962    -0.15360
F345        F  0.33656981  0.02645921  0.54234075    -0.15370
F346        F  0.27960767  0.52683510  0.58331140    -0.13000
C347        C  0.17459764  0.01626122  0.61992225     0.25010
C348        C  0.19724418  0.48479143  0.63527256    -0.23100
C349        C  0.19039459  0.45503623  0.62807632     0.19920
C350        C  0.16085043  0.45676307  0.60620932     0.24950
C351        C  0.13748005  0.48847872  0.59145390    -0.23040
C352        C  0.14492689  0.01818131  0.59824442     0.19850
F353        F  0.12297837  0.04928243  0.58526454    -0.13000
F354        F  0.18093635  0.04530942  0.62683663    -0.15360
F355        F  0.15535906  0.42728167  0.59916799    -0.15370
F356        F  0.21238732  0.42432402  0.64213621    -0.13000
O357        O  0.09333733  0.96706249  0.07989171    -0.73880
O358        O  0.09054233  0.51535951  0.04504311    -0.52790
C359        C  0.10507250  0.99051310  0.07062939     0.79850
O360        O  0.02397182  0.90620238  0.41778850    -0.58480
O361        O  0.47686841  0.90888230  0.45519903    -0.51510
C362        C  0.49983509  0.89526153  0.42726755     0.71860
O363        O  0.09309374  0.96791846  0.42135085    -0.73040
O364        O  0.08851223  0.51769195  0.45417136    -0.53600
C365        C  0.10341361  0.99269355  0.42919676     0.77870
O366        O  0.02622867  0.90523387  0.08333368    -0.58180
O367        O  0.47903683  0.90748239  0.04633884    -0.51300
C368        C  0.50277904  0.89356579  0.07349118     0.74460
Zr369      Zr  0.04396670  0.95218148  0.06333327     2.54710
O370        O  0.09450729  0.89988305  0.06683834    -0.78750
O371        O  0.04042102  0.95701714  0.13928084    -0.92170
Zr372      Zr  0.04423454  0.95167692  0.43871083     2.64680
O373        O  0.09501479  0.89944655  0.43761107    -0.97120
O374        O  0.04200702  0.95518000  0.36259734    -0.79180
O375        O  0.06355629  0.96964316  0.00096002    -0.82540
O376        O  0.02641904  0.93257501  0.50113977    -2.17250
O377        O  0.41427577  0.51722713  0.08465122    -0.65930
O378        O  0.41648081  0.97013820  0.04715618    -0.50490
C379        C  0.40318025  0.49338819  0.07477403     0.72840
O380        O  0.47880421  0.58302486  0.41943742    -0.58840
O381        O  0.02693599  0.57969769  0.45531783    -0.50810
C382        C  0.00307783  0.59393781  0.42845170     0.74640
O383        O  0.41455637  0.51577673  0.41686152    -0.70230
O384        O  0.41666289  0.96956087  0.45557196    -0.48910
C385        C  0.40324109  0.49203736  0.42702566     0.76030
O386        O  0.47774868  0.58397085  0.08091149    -0.65560
O387        O  0.02678990  0.57979584  0.04605561    -0.52760
C388        C  0.00227969  0.59435128  0.07187114     0.74410
Zr389      Zr  0.46036676  0.53624583  0.06280775     2.77540
O390        O  0.40848313  0.58742449  0.06118078    -0.96310
O391        O  0.46294857  0.53583582  0.13892422    -0.77130
Zr392      Zr  0.46038941  0.53579798  0.43836374     2.70070
O393        O  0.40807452  0.58646260  0.43916527    -0.78380
O394        O  0.46310137  0.53524569  0.36225158    -0.97460
Zr395      Zr  0.03983701  0.53045245  0.00074002     2.21500
Zr396      Zr  0.46545794  0.95723565  0.50136220     2.11130
O397        O  0.44098086  0.51815704  0.50075154    -2.46150
O398        O  0.47877954  0.55500072  0.00043797    -0.78170
O399        O  0.48324884  0.97554676  0.06458301    -0.70370
O400        O  0.02124177  0.51231922  0.43758629    -2.31320
O401        O  0.02125542  0.51281614  0.06415407    -2.27530
O402        O  0.48346503  0.97515187  0.43787011    -0.72130
H403        H  0.03442464  0.90789480  0.50118259     0.79870
H404        H  0.02966175  0.52062288  0.41339621     0.80960
H405        H  0.41620849  0.52616336  0.00063324     0.83180
H406        H  0.02979135  0.52115470  0.08821859     0.80790
H407        H  0.04443011  0.97719565  0.35579678     0.43830
H408        H  0.46581842  0.51159714  0.35438631     0.42800
H409        H  0.40972498  0.59853972  0.46519511     0.42470
H410        H  0.39193659  0.58103722  0.04424027     0.40410
H411        H  0.47048191  0.51134336  0.14664300     0.43540
H412        H  0.04664573  0.97703047  0.14596828     0.38320
H413        H  0.10355165  0.89654268  0.03790178     0.44440
H414        H  0.08909859  0.88310979  0.45545160     0.40860
H415        H  0.39941221  0.58960327  0.09007129     0.45780
H416        H  0.06008870  0.93709528  0.14950105     0.44500
H417        H  0.09572331  0.89050903  0.40882693     0.44630
H418        H  0.43955565  0.54939905  0.35317601     0.44990
C419        C  0.00533216  0.77111132  0.15880831     0.04540
C420        C  0.00338484  0.74299637  0.13716455    -0.11610
C421        C  0.00005536  0.71542153  0.15902779     0.02040
C422        C  0.99733219  0.71709869  0.20290760    -0.10130
C423        C  0.00141438  0.74421620  0.22564155     0.04530
C424        C  0.00596084  0.77096632  0.20262315    -0.09550
H425        H  0.00503130  0.74253573  0.10332514     0.10130
H426        H  0.99178390  0.69701494  0.21880367     0.07660
H427        H  0.00972914  0.79218869  0.21804963     0.07510
C428        C  0.99735843  0.77492055  0.33929575     0.04540
C429        C  0.00126143  0.74474694  0.36131547    -0.11610
C430        C  0.00494869  0.71448441  0.33977666     0.02040
C431        C  0.00700704  0.71419684  0.29588729    -0.10130
C432        C  0.00106445  0.74448888  0.27280807     0.04530
C433        C  0.99511092  0.77494053  0.29541997    -0.09550
H434        H  0.00139419  0.74481353  0.39516781     0.10130
H435        H  0.01330931  0.68990289  0.28024202     0.07660
H436        H  0.98871363  0.79913361  0.27942503     0.07510
C437        C  0.28311074  0.98978243  0.16021170     0.04540
C438        C  0.25621721  0.98524531  0.13802272    -0.11610
C439        C  0.22769951  0.98363590  0.15919724     0.02040
C440        C  0.22709964  0.98360818  0.20306354    -0.10130
C441        C  0.25365462  0.98836756  0.22652231     0.04530
C442        C  0.28061785  0.99315138  0.20395680    -0.09550
H443        H  0.25713256  0.98316565  0.10423126     0.10130
H444        H  0.20541240  0.98032608  0.21800190     0.07660
H445        H  0.29990004  0.00006371  0.21974314     0.07510
C446        C  0.28365104  0.98604485  0.34046586     0.04540
C447        C  0.25441353  0.98735322  0.36257316    -0.11610
C448        C  0.22450085  0.98986188  0.34099570     0.02040
C449        C  0.22378914  0.99141571  0.29705969    -0.10130
C450        C  0.25351741  0.98842252  0.27384444     0.04530
C451        C  0.28351899  0.98515513  0.29665951    -0.09550
H452        H  0.25459107  0.98743778  0.39650030     0.10130
H453        H  0.19976000  0.99485707  0.28179775     0.07660
H454        H  0.30745934  0.98161840  0.28121592     0.07510
C455        C  0.48463584  0.63619145  0.36893286     0.25010
C456        C  0.00374181  0.62485905  0.40599924    -0.23100
C457        C  0.02369280  0.64328212  0.42097073     0.19920
C458        C  0.02458589  0.67200919  0.39935390     0.24950
C459        C  0.00520458  0.68338534  0.36257857    -0.23040
C460        C  0.48512152  0.66516246  0.34782581     0.19850
F461        F  0.46513314  0.67583105  0.31324705    -0.13000
F462        F  0.46555513  0.61913022  0.35253729    -0.15360
F463        F  0.04499945  0.68825320  0.41409302    -0.15370
F464        F  0.04218215  0.63385419  0.45685653    -0.13000
C465        C  0.47890232  0.84619767  0.41994130     0.25010
C466        C  0.99852350  0.86480370  0.40452548    -0.23100
C467        C  0.01708366  0.85377836  0.36713373     0.19920
C468        C  0.01659794  0.82474923  0.34628211     0.24950
C469        C  0.99697859  0.80622109  0.36160650    -0.23090
C470        C  0.47794930  0.81746309  0.39856031     0.19850
F471        F  0.45789566  0.80100892  0.41380379    -0.13000
F472        F  0.46089995  0.85536197  0.45612568    -0.15360
F473        F  0.03623648  0.81427406  0.31149065    -0.15370
F474        F  0.03576020  0.87109591  0.35030636    -0.13000
C475        C  0.48262330  0.65763606  0.07762238     0.25010
C476        C  0.00230631  0.62517180  0.09323945    -0.23100
C477        C  0.02117670  0.62223048  0.13018729     0.19920
C478        C  0.02048043  0.65152986  0.15145390     0.24950
C479        C  0.00042155  0.68436785  0.13632330    -0.23040
C480        C  0.48150323  0.68706729  0.09905105     0.19850
F481        F  0.46125036  0.71809618  0.08385872    -0.13000
F482        F  0.46435170  0.66076061  0.04170601    -0.15360
F483        F  0.04006885  0.64771948  0.18636176    -0.15370
F484        F  0.04018576  0.59089654  0.14573907    -0.13000
C485        C  0.47588061  0.82184235  0.11384389     0.25010
C486        C  0.00536224  0.80147417  0.13566917    -0.23100
C487        C  0.03408006  0.81102164  0.13673009     0.19920
C488        C  0.03340497  0.84068557  0.11625452     0.24950
C489        C  0.00363015  0.86171188  0.09470386    -0.23040
C490        C  0.47487816  0.85175977  0.09368907     0.19850
F491        F  0.44541615  0.87127550  0.07410315    -0.13000
F492        F  0.44761621  0.81322969  0.11316146    -0.15360
F493        F  0.06216598  0.84844520  0.11726982    -0.15370
F494        F  0.06294536  0.79136678  0.15733089    -0.13000
C495        C  0.33229298  0.96151619  0.39096078     0.25010
C496        C  0.31408880  0.98735430  0.36278003    -0.23100
C497        C  0.32512970  0.51467782  0.35551420     0.19920
C498        C  0.35390955  0.51632614  0.37623796     0.24950
C499        C  0.37257673  0.99037263  0.40460331    -0.23040
C500        C  0.36133163  0.96279729  0.41149647     0.19850
F501        F  0.37848460  0.93668809  0.43777220    -0.13000
F502        F  0.32236826  0.93457608  0.39789544    -0.15360
F503        F  0.36309469  0.54363645  0.36864519    -0.15370
F504        F  0.30751652  0.54024945  0.32877819    -0.13000
C505        C  0.13491880  0.52166204  0.38652131     0.25010
C506        C  0.13464306  0.99236412  0.40765844    -0.23100
C507        C  0.16427024  0.96250355  0.40742172     0.19920
C508        C  0.19374768  0.96194460  0.38636502     0.24950
C509        C  0.19374478  0.99097297  0.36445635    -0.23040
C510        C  0.16416203  0.52082033  0.36463497     0.19850
F511        F  0.16373945  0.54915888  0.34376814    -0.13000
F512        F  0.10651781  0.55072523  0.38599633    -0.15360
F513        F  0.22212540  0.93286450  0.38664433    -0.15370
F514        F  0.16479651  0.93407038  0.42817894    -0.13000
C515        C  0.34707771  0.97370674  0.15479313     0.25010
C516        C  0.31397103  0.99096002  0.13805964    -0.23100
C517        C  0.31085787  0.00899479  0.10002336     0.19920
C518        C  0.34006794  0.00950011  0.07928358     0.24950
C519        C  0.37269173  0.99278183  0.09658937    -0.23040
C520        C  0.37609398  0.97500807  0.13441922     0.19850
F521        F  0.40762557  0.95854969  0.15133910    -0.13000
F522        F  0.35154030  0.95478110  0.19032783    -0.15360
F523        F  0.33654989  0.52647877  0.04233688    -0.15370
F524        F  0.27958768  0.02685245  0.08330671    -0.13000
C525        C  0.17456682  0.51628791  0.11993618     0.25010
C526        C  0.19721624  0.98481721  0.13528084    -0.23100
C527        C  0.19036955  0.95506126  0.12807828     0.19920
C528        C  0.16082597  0.95678791  0.10621032     0.24950
C529        C  0.13745329  0.98850399  0.09145948    -0.23040
C530        C  0.14489655  0.51820771  0.09825687     0.19850
F531        F  0.12294555  0.54930907  0.08528120    -0.13000
F532        F  0.18090323  0.54533671  0.12685541    -0.15360
F533        F  0.15533790  0.92730569  0.09916231    -0.15370
F534        F  0.21236527  0.92434816  0.14213170    -0.13000
O535        O  0.09336084  0.96704042  0.57988970    -0.73880
O536        O  0.09056765  0.51533689  0.54504124    -0.52790
C537        C  0.10509773  0.99048961  0.57062632     0.79850
O538        O  0.02395942  0.90621483  0.91778263    -0.58480
O539        O  0.47685733  0.90889138  0.95519340    -0.51510
C540        C  0.49982382  0.89527223  0.92726122     0.71860
O541        O  0.09307184  0.96793978  0.92134752    -0.73040
O542        O  0.08848817  0.51771380  0.95416820    -0.53600
C543        C  0.10339017  0.99271589  0.92919294     0.77870
O544        O  0.02624323  0.90522095  0.58333232    -0.58180
O545        O  0.47904875  0.90747407  0.54633974    -0.51300
C546        C  0.50279195  0.89355515  0.57349000     0.74460
Zr547      Zr  0.04398548  0.95216600  0.56333442     2.54710
O548        O  0.09452256  0.89986411  0.56683660    -0.78750
O549        O  0.04044321  0.95699991  0.63928225    -0.92170
Zr550      Zr  0.04421720  0.95169213  0.93870855     2.64680
O551        O  0.09500115  0.89946536  0.93760690    -0.97120
O552        O  0.04198821  0.95519688  0.86259515    -0.79180
O553        O  0.06357615  0.96962621  0.50096129    -0.82540
O554        O  0.02640483  0.93258717  0.00113771    -2.17250
O555        O  0.41429978  0.51721788  0.58466441    -0.65930
O556        O  0.41649473  0.97013540  0.54716266    -0.50490
C557        C  0.40319944  0.49338268  0.57478567     0.72840
O558        O  0.47877704  0.58304039  0.91943688    -0.58840
O559        O  0.02690766  0.57971549  0.95531836    -0.50810
C560        C  0.00304909  0.59395516  0.92845276     0.74640
O561        O  0.41453456  0.51578664  0.91686644    -0.70230
O562        O  0.41664694  0.96956738  0.95557390    -0.48910
C563        C  0.40322141  0.49204592  0.92703120     0.76030
O564        O  0.47777671  0.58395618  0.58091362    -0.65560
O565        O  0.02681862  0.57977808  0.54605737    -0.52760
C566        C  0.00230885  0.59433478  0.57187296     0.74410
Zr567      Zr  0.46039001  0.53623422  0.56281142     2.77540
O568        O  0.40850813  0.58741460  0.56118574    -0.96310
O569        O  0.46297603  0.53582558  0.63892766    -0.77130
Zr570      Zr  0.46036839  0.53580889  0.93836082     2.70070
O571        O  0.40805149  0.58647154  0.93915539    -0.78380
O572        O  0.46308250  0.53525120  0.86224876    -0.97460
Zr573      Zr  0.03986042  0.53043556  0.50074139     2.21500
Zr574      Zr  0.46544401  0.95724356  0.00135911     2.11130
O575        O  0.44096212  0.51816499  0.00074782    -2.46150
O576        O  0.47880328  0.55498758  0.50044073    -0.78170
O577        O  0.48326755  0.97553527  0.56458552    -0.70370
O578        O  0.02122073  0.51233441  0.93758441    -2.31320
O579        O  0.02127855  0.51280065  0.56415615    -2.27530
O580        O  0.48344784  0.97516267  0.93786688    -0.72130
H581        H  0.03441220  0.90790686  0.00118069     0.79870
H582        H  0.02963982  0.52063923  0.91339454     0.80960
H583        H  0.41622713  0.52615714  0.50063739     0.83180
H584        H  0.02981599  0.52113804  0.58822040     0.80790
H585        H  0.04441030  0.97721307  0.85579505     0.43830
H586        H  0.46579787  0.51160260  0.85438593     0.42800
H587        H  0.40969545  0.59854617  0.96518991     0.42470
H588        H  0.39195939  0.58102726  0.54424954     0.40410
H589        H  0.47051242  0.51133306  0.64664711     0.43540
H590        H  0.04667001  0.97701199  0.64596960     0.38320
H591        H  0.10356776  0.89652511  0.53790042     0.44440
H592        H  0.08908692  0.88312675  0.95544638     0.40860
H593        H  0.39943974  0.58959573  0.59007765     0.45780
H594        H  0.06011030  0.93707682  0.64950101     0.44500
H595        H  0.09571060  0.89052852  0.90882225     0.44630
H596        H  0.43953742  0.54940537  0.85317181     0.44990
C597        C  0.00534223  0.77110226  0.65880317     0.04540
C598        C  0.00340009  0.74298475  0.63716109    -0.11610
C599        C  0.00007014  0.71541096  0.65902574     0.02040
C600        C  0.99734132  0.71709175  0.70290510    -0.10130
C601        C  0.00141736  0.74421316  0.72563787     0.04530
C602        C  0.00596482  0.77096184  0.70261780    -0.09550
H603        H  0.00505083  0.74252136  0.60332197     0.10130
H604        H  0.99179319  0.69700790  0.71880097     0.07660
H605        H  0.00972953  0.79218673  0.71804231     0.07510
C606        C  0.99734934  0.77492977  0.83928901     0.04540
C607        C  0.00124644  0.74475909  0.86131195    -0.11610
C608        C  0.00493224  0.71449561  0.83977660     0.02040
C609        C  0.00699635  0.71420293  0.79588788    -0.10130
C610        C  0.00106060  0.74449162  0.77280452     0.04530
C611        C  0.99510750  0.77494529  0.79541274    -0.09550
H612        H  0.00137554  0.74482855  0.89516427     0.10130
H613        H  0.01329776  0.68990739  0.78024690     0.07660
H614        H  0.98871425  0.79913663  0.77941501     0.07510
C615        C  0.28312872  0.98977309  0.66022274     0.04540
C616        C  0.25624259  0.98522616  0.63802775    -0.11610
C617        C  0.22772362  0.98361237  0.65919520     0.02040
C618        C  0.22711525  0.98358953  0.70306100    -0.10130
C619        C  0.25366163  0.98835889  0.72652573     0.04530
C620        C  0.28062668  0.99314633  0.70396731    -0.09550
H621        H  0.25716402  0.98314318  0.60423669     0.10130
H622        H  0.20542763  0.98030450  0.71799492     0.07660
H623        H  0.29990202  0.00006585  0.71975925     0.07510
C624        C  0.28363304  0.98605140  0.84047554     0.04540
C625        C  0.25439048  0.98736657  0.86257588    -0.11610
C626        C  0.22448116  0.98987442  0.84099116     0.02040
C627        C  0.22377840  0.99142130  0.79705436    -0.10130
C628        C  0.25351287  0.98842113  0.77384728     0.04530
C629        C  0.28351030  0.98515389  0.79666982    -0.09550
H630        H  0.25456183  0.98745642  0.89650305     0.10130
H631        H  0.19975204  0.99486248  0.78178508     0.07660
H632        H  0.30745426  0.98161205  0.78123195     0.07510
C633        C  0.48460654  0.63621098  0.86893613     0.25010
C634        C  0.00371192  0.62487761  0.90600267    -0.23100
C635        C  0.02366360  0.64329952  0.92097560     0.19920
C636        C  0.02456020  0.67202476  0.89935825     0.24950
C637        C  0.00518148  0.68340047  0.86258125    -0.23040
C638        C  0.48509576  0.66518038  0.84782845     0.19850
F639        F  0.46510929  0.67584962  0.81324825    -0.13000
F640        F  0.46552385  0.61915183  0.85254055    -0.15360
F641        F  0.04497531  0.68826684  0.91409795    -0.15370
F642        F  0.04215104  0.63387170  0.95686280    -0.13000
C643        C  0.47888959  0.84620972  0.91993134     0.25010
C644        C  0.99851297  0.86481437  0.90451804    -0.23100
C645        C  0.01707517  0.85378790  0.86712778     0.19920
C646        C  0.01658955  0.82475873  0.84627563     0.24950
C647        C  0.99696825  0.80623176  0.86159798    -0.23090
C648        C  0.47793639  0.81747559  0.89854971     0.19850
F649        F  0.45787997  0.80102357  0.91379081    -0.13000
F650        F  0.46088498  0.85537491  0.95611406    -0.15360
F651        F  0.03623030  0.81428224  0.81148612    -0.15370
F652        F  0.03575384  0.87110415  0.85030267    -0.13000
C653        C  0.48265081  0.65761912  0.57761971     0.25010
C654        C  0.00233530  0.62515618  0.59323889    -0.23100
C655        C  0.02120303  0.62221757  0.63018851     0.19920
C656        C  0.02050188  0.65151868  0.65145525     0.24950
C657        C  0.00044109  0.68435526  0.63632247    -0.23040
C658        C  0.48152608  0.68705181  0.59904815     0.19850
F659        F  0.46127157  0.71807932  0.58385370    -0.13000
F660        F  0.46438162  0.66074092  0.54170182    -0.15360
F661        F  0.04008694  0.64771157  0.68636556    -0.15370
F662        F  0.04021351  0.59088481  0.64574231    -0.13000
C663        C  0.47589084  0.82183367  0.61384081     0.25010
C664        C  0.00537343  0.80146333  0.63566248    -0.23100
C665        C  0.03409306  0.81100770  0.63672032     0.19920
C666        C  0.03341859  0.84067167  0.61624600     0.24950
C667        C  0.00364252  0.86170087  0.59470004    -0.23040
C668        C  0.47488899  0.85175120  0.59368722     0.19850
F669        F  0.44542617  0.87126949  0.57410483    -0.13000
F670        F  0.44762516  0.81322306  0.61316106    -0.15360
F671        F  0.06218119  0.84842865  0.61725817    -0.15370
F672        F  0.06295909  0.79135023  0.65731780    -0.13000
C673        C  0.33227269  0.96152428  0.89097249     0.25010
C674        C  0.31406647  0.98736389  0.86279493    -0.23100
C675        C  0.32510368  0.51469005  0.85553237     0.19920
C676        C  0.35388382  0.51633855  0.87625427     0.24950
C677        C  0.37255493  0.99038234  0.90461408    -0.23040
C678        C  0.36131188  0.96280547  0.91150642     0.19850
F679        F  0.37846781  0.93669466  0.93777859    -0.13000
F680        F  0.32235007  0.93458246  0.89790451    -0.15360
F681        F  0.36306594  0.54365113  0.86866429    -0.15370
F682        F  0.30748753  0.54026299  0.82879955    -0.13000
C683        C  0.13489553  0.52168109  0.88651019     0.25010
C684        C  0.13461966  0.99238600  0.90765413    -0.23100
C685        C  0.16424652  0.96252523  0.90742110     0.19920
C686        C  0.19372383  0.96196305  0.88636188     0.24950
C687        C  0.19372157  0.99098827  0.86444658    -0.23040
C688        C  0.16413900  0.52083604  0.86462099     0.19850
F689        F  0.16371726  0.54917200  0.84374885    -0.13000
F690        F  0.10649477  0.55074444  0.88598183    -0.15360
F691        F  0.22210143  0.93288288  0.88664649    -0.15370
F692        F  0.16477265  0.93409481  0.92818473    -0.13000
C693        C  0.34709558  0.97371475  0.65481753     0.25010
C694        C  0.31398946  0.99095713  0.63807621    -0.23100
C695        C  0.31087732  0.00898434  0.60003406     0.19920
C696        C  0.34008747  0.00948880  0.57929346     0.24950
C697        C  0.37271078  0.99277861  0.59660436    -0.23040
C698        C  0.37611192  0.97501625  0.63444292     0.19850
F699        F  0.40764274  0.95856733  0.65136956    -0.13000
F700        F  0.35155814  0.95479796  0.69035962    -0.15360
F701        F  0.33656979  0.52645924  0.54234077    -0.15370
F702        F  0.27960768  0.02683507  0.58331138    -0.13000
C703        C  0.17459763  0.51626122  0.61992226     0.25010
C704        C  0.19724419  0.98479142  0.63527255    -0.23100
C705        C  0.19039460  0.95503622  0.62807632     0.19920
C706        C  0.16085044  0.95676307  0.60620932     0.24950
C707        C  0.13748006  0.98847872  0.59145390    -0.23040
C708        C  0.14492688  0.51818131  0.59824442     0.19850
F709        F  0.12297836  0.54928244  0.58526455    -0.13000
F710        F  0.18093634  0.54530943  0.62683664    -0.15360
F711        F  0.15535907  0.92728167  0.59916799    -0.15370
F712        F  0.21238732  0.92432402  0.64213622    -0.13000
O713        O  0.59333734  0.46706248  0.07989170    -0.73880
O714        O  0.59054234  0.01535951  0.04504311    -0.52790
C715        C  0.60507250  0.49051310  0.07062939     0.79850
O716        O  0.52397181  0.40620238  0.41778850    -0.58480
O717        O  0.97686840  0.40888230  0.45519903    -0.51510
C718        C  0.99983508  0.39526153  0.42726755     0.71860
O719        O  0.59309373  0.46791846  0.42135085    -0.73040
O720        O  0.58851223  0.01769194  0.45417136    -0.53600
C721        C  0.60341361  0.49269355  0.42919676     0.77870
O722        O  0.52622867  0.40523387  0.08333367    -0.58180
O723        O  0.97903683  0.40748239  0.04633883    -0.51300
C724        C  0.00277904  0.39356579  0.07349118     0.74460
Zr725      Zr  0.54396670  0.45218148  0.06333326     2.54710
O726        O  0.59450729  0.39988305  0.06683833    -0.78750
O727        O  0.54042103  0.45701713  0.13928084    -0.92170
Zr728      Zr  0.54423453  0.45167692  0.43871084     2.64680
O729        O  0.59501478  0.39944655  0.43761111    -0.97120
O730        O  0.54200703  0.45517998  0.36259734    -0.79180
O731        O  0.56355629  0.46964316  0.00096001    -0.82540
O732        O  0.52641903  0.43257502  0.50113978    -2.17250
O733        O  0.91427576  0.01722714  0.08465122    -0.65930
O734        O  0.91648081  0.47013820  0.04715619    -0.50490
C735        C  0.90318024  0.99338820  0.07477403     0.72840
O736        O  0.97880421  0.08302486  0.41943743    -0.58840
O737        O  0.52693600  0.07969769  0.45531783    -0.50810
C738        C  0.50307784  0.09393781  0.42845170     0.74640
O739        O  0.91455637  0.01577672  0.41686152    -0.70230
O740        O  0.91666288  0.46956087  0.45557196    -0.48910
C741        C  0.90324110  0.99203735  0.42702567     0.76030
O742        O  0.97774869  0.08397086  0.08091148    -0.65560
O743        O  0.52678991  0.07979584  0.04605560    -0.52760
C744        C  0.50227970  0.09435129  0.07187113     0.74410
Zr745      Zr  0.96036676  0.03624584  0.06280774     2.77540
O746        O  0.90848314  0.08742450  0.06118076    -0.96310
O747        O  0.96294856  0.03583583  0.13892421    -0.77130
Zr748      Zr  0.96038941  0.03579798  0.43836375     2.70070
O749        O  0.90807452  0.08646260  0.43916528    -0.78380
O750        O  0.96310137  0.03524569  0.36225158    -0.97460
Zr751      Zr  0.53983702  0.03045245  0.00074002     2.21500
Zr752      Zr  0.96545793  0.45723565  0.50136220     2.11130
O753        O  0.94098087  0.01815703  0.50075154    -2.46150
O754        O  0.97877955  0.05500072  0.00043796    -0.78170
O755        O  0.98324884  0.47554675  0.06458301    -0.70370
O756        O  0.52124178  0.01231922  0.43758629    -2.31320
O757        O  0.52125542  0.01281614  0.06415407    -2.27530
O758        O  0.98346502  0.47515187  0.43787011    -0.72130
H759        H  0.53442463  0.40789480  0.50118260     0.79870
H760        H  0.52966176  0.02062288  0.41339620     0.80960
H761        H  0.91620849  0.02616336  0.00063323     0.83180
H762        H  0.52979135  0.02115471  0.08821859     0.80790
H763        H  0.54443008  0.47719566  0.35579679     0.43830
H764        H  0.96581842  0.01159715  0.35438631     0.42800
H765        H  0.90972499  0.09853972  0.46519512     0.42470
H766        H  0.89193660  0.08103723  0.04424025     0.40410
H767        H  0.97048191  0.01134337  0.14664300     0.43540
H768        H  0.54664575  0.47703045  0.14596828     0.38320
H769        H  0.60355164  0.39654268  0.03790176     0.44440
H770        H  0.58909857  0.38310979  0.45545163     0.40860
H771        H  0.89941221  0.08960328  0.09007127     0.45780
H772        H  0.56008870  0.43709527  0.14950104     0.44500
H773        H  0.59572331  0.39050903  0.40882696     0.44630
H774        H  0.93955564  0.04939905  0.35317601     0.44990
C775        C  0.50533217  0.27111132  0.15880831     0.04540
C776        C  0.50338485  0.24299637  0.13716455    -0.11610
C777        C  0.50005536  0.21542153  0.15902779     0.02040
C778        C  0.49733220  0.21709869  0.20290760    -0.10130
C779        C  0.50141439  0.24421620  0.22564155     0.04530
C780        C  0.50596084  0.27096632  0.20262315    -0.09550
H781        H  0.50503131  0.24253573  0.10332514     0.10130
H782        H  0.49178391  0.19701493  0.21880367     0.07660
H783        H  0.50972914  0.29218869  0.21804963     0.07510
C784        C  0.49735843  0.27492056  0.33929575     0.04540
C785        C  0.50126143  0.24474694  0.36131547    -0.11610
C786        C  0.50494869  0.21448441  0.33977666     0.02040
C787        C  0.50700705  0.21419684  0.29588729    -0.10130
C788        C  0.50106445  0.24448888  0.27280807     0.04530
C789        C  0.49511092  0.27494053  0.29541996    -0.09550
H790        H  0.50139419  0.24481353  0.39516781     0.10130
H791        H  0.51330932  0.18990289  0.28024202     0.07660
H792        H  0.48871362  0.29913361  0.27942503     0.07510
C793        C  0.78311074  0.48978241  0.16021170     0.04540
C794        C  0.75621721  0.48524529  0.13802272    -0.11610
C795        C  0.72769951  0.48363588  0.15919724     0.02040
C796        C  0.72709964  0.48360818  0.20306354    -0.10130
C797        C  0.75365462  0.48836755  0.22652231     0.04530
C798        C  0.78061785  0.49315136  0.20395680    -0.09550
H799        H  0.75713257  0.48316562  0.10423126     0.10130
H800        H  0.70541239  0.48032608  0.21800190     0.07660
H801        H  0.79990004  0.50006369  0.21974314     0.07510
C802        C  0.78365103  0.48604485  0.34046586     0.04540
C803        C  0.75441351  0.48735322  0.36257316    -0.11610
C804        C  0.72450084  0.48986188  0.34099570     0.02040
C805        C  0.72378914  0.49141571  0.29705969    -0.10130
C806        C  0.75351741  0.48842251  0.27384444     0.04530
C807        C  0.78351898  0.48515513  0.29665951    -0.09550
H808        H  0.75459106  0.48743779  0.39650030     0.10130
H809        H  0.69976000  0.49485707  0.28179775     0.07660
H810        H  0.80745933  0.48161840  0.28121592     0.07510
C811        C  0.98463584  0.13619145  0.36893286     0.25010
C812        C  0.50374181  0.12485905  0.40599924    -0.23100
C813        C  0.52369280  0.14328212  0.42097074     0.19920
C814        C  0.52458589  0.17200920  0.39935390     0.24950
C815        C  0.50520458  0.18338534  0.36257857    -0.23040
C816        C  0.98512152  0.16516247  0.34782581     0.19850
F817        F  0.96513313  0.17583105  0.31324705    -0.13000
F818        F  0.96555513  0.11913022  0.35253729    -0.15360
F819        F  0.54499945  0.18825320  0.41409303    -0.15370
F820        F  0.54218215  0.13385419  0.45685654    -0.13000
C821        C  0.97890231  0.34619768  0.41994130     0.25010
C822        C  0.49852349  0.36480371  0.40452548    -0.23100
C823        C  0.51708365  0.35377837  0.36713372     0.19920
C824        C  0.51659793  0.32474924  0.34628211     0.24950
C825        C  0.49697858  0.30622109  0.36160650    -0.23090
C826        C  0.97794929  0.31746310  0.39856031     0.19850
F827        F  0.95789564  0.30100893  0.41380379    -0.13000
F828        F  0.96089994  0.35536198  0.45612568    -0.15360
F829        F  0.53623647  0.31427408  0.31149064    -0.15370
F830        F  0.53576017  0.37109592  0.35030636    -0.13000
C831        C  0.98262329  0.15763606  0.07762239     0.25010
C832        C  0.50230632  0.12517180  0.09323944    -0.23100
C833        C  0.52117672  0.12223048  0.13018728     0.19920
C834        C  0.52048045  0.15152986  0.15145389     0.24950
C835        C  0.50042156  0.18436784  0.13632330    -0.23040
C836        C  0.98150322  0.18706729  0.09905106     0.19850
F837        F  0.96125034  0.21809618  0.08385874    -0.13000
F838        F  0.96435168  0.16076061  0.04170603    -0.15360
F839        F  0.54006888  0.14771947  0.18636175    -0.15370
F840        F  0.54018579  0.09089654  0.14573905    -0.13000
C841        C  0.97588060  0.32184235  0.11384388     0.25010
C842        C  0.50536224  0.30147417  0.13566917    -0.23100
C843        C  0.53408006  0.31102163  0.13673009     0.19920
C844        C  0.53340497  0.34068557  0.11625452     0.24950
C845        C  0.50363015  0.36171187  0.09470386    -0.23040
C846        C  0.97487816  0.35175977  0.09368907     0.19850
F847        F  0.94541615  0.37127550  0.07410314    -0.13000
F848        F  0.94761620  0.31322969  0.11316146    -0.15360
F849        F  0.56216599  0.34844520  0.11726982    -0.15370
F850        F  0.56294537  0.29136678  0.15733089    -0.13000
C851        C  0.83229297  0.46151619  0.39096079     0.25010
C852        C  0.81408879  0.48735431  0.36278003    -0.23100
C853        C  0.82512971  0.01467781  0.35551420     0.19920
C854        C  0.85390956  0.01632613  0.37623796     0.24950
C855        C  0.87257672  0.49037264  0.40460332    -0.23040
C856        C  0.86133162  0.46279730  0.41149648     0.19850
F857        F  0.87848459  0.43668810  0.43777221    -0.13000
F858        F  0.82236825  0.43457609  0.39789545    -0.15360
F859        F  0.86309471  0.04363643  0.36864519    -0.15370
F860        F  0.80751654  0.04024943  0.32877819    -0.13000
C861        C  0.63491882  0.02166204  0.38652132     0.25010
C862        C  0.63464305  0.49236412  0.40765844    -0.23100
C863        C  0.66427023  0.46250356  0.40742173     0.19920
C864        C  0.69374768  0.46194460  0.38636503     0.24950
C865        C  0.69374477  0.49097297  0.36445635    -0.23040
C866        C  0.66416204  0.02082032  0.36463498     0.19850
F867        F  0.66373947  0.04915888  0.34376816    -0.13000
F868        F  0.60651783  0.05072524  0.38599635    -0.15360
F869        F  0.72212540  0.43286451  0.38664436    -0.15370
F870        F  0.66479651  0.43407039  0.42817896    -0.13000
C871        C  0.84707771  0.47370672  0.15479313     0.25010
C872        C  0.81397104  0.49096000  0.13805964    -0.23100
C873        C  0.81085787  0.50899477  0.10002336     0.19920
C874        C  0.84006794  0.50950009  0.07928358     0.24950
C875        C  0.87269174  0.49278182  0.09658937    -0.23040
C876        C  0.87609398  0.47500806  0.13441923     0.19850
F877        F  0.90762557  0.45854968  0.15133910    -0.13000
F878        F  0.85154030  0.45478108  0.19032784    -0.15360
F879        F  0.83654988  0.02647879  0.04233688    -0.15370
F880        F  0.77958768  0.52685243  0.08330671    -0.13000
C881        C  0.67456681  0.01628792  0.11993620     0.25010
C882        C  0.69721624  0.48481720  0.13528084    -0.23100
C883        C  0.69036956  0.45506124  0.12807825     0.19920
C884        C  0.66082598  0.45678791  0.10621029     0.24950
C885        C  0.63745329  0.48850399  0.09145947    -0.23040
C886        C  0.64489655  0.01820772  0.09825688     0.19850
F887        F  0.62294554  0.04930908  0.08528123    -0.13000
F888        F  0.68090322  0.04533672  0.12685544    -0.15360
F889        F  0.65533792  0.42730568  0.09916225    -0.15370
F890        F  0.71236529  0.42434815  0.14213165    -0.13000
O891        O  0.59336083  0.46704043  0.57988970    -0.73880
O892        O  0.59056766  0.01533689  0.54504124    -0.52790
C893        C  0.60509772  0.49048961  0.57062633     0.79850
O894        O  0.52395943  0.40621483  0.91778262    -0.58480
O895        O  0.97685732  0.40889138  0.95519340    -0.51510
C896        C  0.99982382  0.39527223  0.92726121     0.71860
O897        O  0.59307183  0.46793979  0.92134752    -0.73040
O898        O  0.58848818  0.01771380  0.95416820    -0.53600
C899        C  0.60339017  0.49271590  0.92919294     0.77870
O900        O  0.52624322  0.40522095  0.58333232    -0.58180
O901        O  0.97904874  0.40747407  0.54633974    -0.51300
C902        C  0.00279194  0.39355516  0.57349000     0.74460
Zr903      Zr  0.54398546  0.45216601  0.56333443     2.54710
O904        O  0.59452255  0.39986411  0.56683664    -0.78750
O905        O  0.54044318  0.45699994  0.63928226    -0.92170
Zr906      Zr  0.54421719  0.45169214  0.93870855     2.64680
O907        O  0.59500114  0.39946537  0.93760687    -0.97120
O908        O  0.54198820  0.45519690  0.86259514    -0.79180
O909        O  0.56357614  0.46962621  0.50096130    -0.82540
O910        O  0.52640483  0.43258717  0.00113771    -2.17250
O911        O  0.91429979  0.01721786  0.58466442    -0.65930
O912        O  0.91649472  0.47013541  0.54716267    -0.50490
C913        C  0.90319946  0.99338267  0.57478567     0.72840
O914        O  0.97877705  0.08304038  0.91943687    -0.58840
O915        O  0.52690768  0.07971548  0.95531835    -0.50810
C916        C  0.50304911  0.09395516  0.92845275     0.74640
O917        O  0.91453456  0.01578664  0.91686643    -0.70230
O918        O  0.91664693  0.46956738  0.95557390    -0.48910
C919        C  0.90322142  0.99204592  0.92703119     0.76030
O920        O  0.97777672  0.08395617  0.58091362    -0.65560
O921        O  0.52681863  0.07977807  0.54605737    -0.52760
C922        C  0.50230886  0.09433477  0.57187296     0.74410
Zr923      Zr  0.96039002  0.03623421  0.56281142     2.77540
O924        O  0.90850814  0.08741459  0.56118574    -0.96310
O925        O  0.96297604  0.03582557  0.63892766    -0.77130
Zr926      Zr  0.96036840  0.03580888  0.93836081     2.70070
O927        O  0.90805149  0.08647154  0.93915537    -0.78380
O928        O  0.96308252  0.03525118  0.86224875    -0.97460
Zr929      Zr  0.53986043  0.03043556  0.50074139     2.21500
Zr930      Zr  0.96544401  0.45724356  0.00135911     2.11130
O931        O  0.94096213  0.01816500  0.00074781    -2.46150
O932        O  0.97880328  0.05498757  0.50044073    -0.78170
O933        O  0.98326754  0.47553527  0.56458552    -0.70370
O934        O  0.52122075  0.01233440  0.93758441    -2.31320
O935        O  0.52127856  0.01280065  0.56415615    -2.27530
O936        O  0.98344783  0.47516267  0.93786688    -0.72130
H937        H  0.53441221  0.40790686  0.00118068     0.79870
H938        H  0.52963983  0.02063922  0.91339454     0.80960
H939        H  0.91622714  0.02615714  0.50063739     0.83180
H940        H  0.52981600  0.02113803  0.58822040     0.80790
H941        H  0.54441031  0.47721308  0.85579505     0.43830
H942        H  0.96579790  0.01160258  0.85438592     0.42800
H943        H  0.90969545  0.09854617  0.96518989     0.42470
H944        H  0.89195940  0.08102725  0.54424955     0.40410
H945        H  0.97051245  0.01133304  0.64664711     0.43540
H946        H  0.54667002  0.47701200  0.64596960     0.38320
H947        H  0.60356774  0.39652510  0.53790046     0.44440
H948        H  0.58908692  0.38312676  0.95544636     0.40860
H949        H  0.89943975  0.08959572  0.59007766     0.45780
H950        H  0.56011025  0.43707683  0.64950102     0.44500
H951        H  0.59571059  0.39052854  0.90882222     0.44630
H952        H  0.93953744  0.04940536  0.85317180     0.44990
C953        C  0.50534223  0.27110226  0.65880317     0.04540
C954        C  0.50340009  0.24298475  0.63716109    -0.11610
C955        C  0.50007014  0.21541096  0.65902574     0.02040
C956        C  0.49734133  0.21709175  0.70290510    -0.10130
C957        C  0.50141737  0.24421316  0.72563786     0.04530
C958        C  0.50596482  0.27096184  0.70261779    -0.09550
H959        H  0.50505083  0.24252136  0.60332197     0.10130
H960        H  0.49179320  0.19700790  0.71880097     0.07660
H961        H  0.50972953  0.29218673  0.71804230     0.07510
C962        C  0.49734935  0.27492977  0.83928901     0.04540
C963        C  0.50124646  0.24475908  0.86131195    -0.11610
C964        C  0.50493226  0.21449561  0.83977659     0.02040
C965        C  0.50699637  0.21420292  0.79588787    -0.10130
C966        C  0.50106061  0.24449162  0.77280451     0.04530
C967        C  0.49510751  0.27494529  0.79541274    -0.09550
H968        H  0.50137556  0.24482854  0.89516427     0.10130
H969        H  0.51329777  0.18990739  0.78024690     0.07660
H970        H  0.48871426  0.29913663  0.77941500     0.07510
C971        C  0.78312871  0.48977309  0.66022274     0.04540
C972        C  0.75624259  0.48522615  0.63802775    -0.11610
C973        C  0.72772361  0.48361237  0.65919520     0.02040
C974        C  0.72711525  0.48358952  0.70306100    -0.10130
C975        C  0.75366162  0.48835888  0.72652573     0.04530
C976        C  0.78062668  0.49314632  0.70396731    -0.09550
H977        H  0.75716401  0.48314318  0.60423669     0.10130
H978        H  0.70542763  0.48030448  0.71799492     0.07660
H979        H  0.79990202  0.50006584  0.71975925     0.07510
C980        C  0.78363303  0.48605140  0.84047554     0.04540
C981        C  0.75439047  0.48736657  0.86257588    -0.11610
C982        C  0.72448115  0.48987442  0.84099116     0.02040
C983        C  0.72377840  0.49142130  0.79705436    -0.10130
C984        C  0.75351286  0.48842112  0.77384728     0.04530
C985        C  0.78351030  0.48515388  0.79666982    -0.09550
H986        H  0.75456182  0.48745643  0.89650305     0.10130
H987        H  0.69975204  0.49486247  0.78178508     0.07660
H988        H  0.80745426  0.48161203  0.78123195     0.07510
C989        C  0.98460655  0.13621098  0.86893612     0.25010
C990        C  0.50371194  0.12487760  0.90600266    -0.23100
C991        C  0.52366362  0.14329951  0.92097559     0.19920
C992        C  0.52456022  0.17202475  0.89935824     0.24950
C993        C  0.50518150  0.18340046  0.86258125    -0.23040
C994        C  0.98509577  0.16518037  0.84782844     0.19850
F995        F  0.96510930  0.17584962  0.81324824    -0.13000
F996        F  0.96552386  0.11915182  0.85254054    -0.15360
F997        F  0.54497533  0.18826683  0.91409794    -0.15370
F998        F  0.54215106  0.13387169  0.95686279    -0.13000
C999        C  0.97888959  0.34620972  0.91993134     0.25010
C1000       C  0.49851297  0.36481437  0.90451804    -0.23100
C1001       C  0.51707517  0.35378790  0.86712777     0.19920
C1002       C  0.51658956  0.32475872  0.84627562     0.24950
C1003       C  0.49696827  0.30623175  0.86159798    -0.23090
C1004       C  0.97793638  0.31747559  0.89854971     0.19850
F1005       F  0.95787997  0.30102356  0.91379081    -0.13000
F1006       F  0.96088498  0.35537491  0.95611405    -0.15360
F1007       F  0.53623030  0.31428225  0.81148612    -0.15370
F1008       F  0.53575384  0.37110415  0.85030266    -0.13000
C1009       C  0.98265082  0.15761912  0.57761971     0.25010
C1010       C  0.50233531  0.12515617  0.59323889    -0.23100
C1011       C  0.52120304  0.12221757  0.63018851     0.19920
C1012       C  0.52050188  0.15151868  0.65145524     0.24950
C1013       C  0.50044110  0.18435526  0.63632247    -0.23040
C1014       C  0.98152608  0.18705180  0.59904814     0.19850
F1015       F  0.96127158  0.21807931  0.58385370    -0.13000
F1016       F  0.96438163  0.16074091  0.54170182    -0.15360
F1017       F  0.54008694  0.14771157  0.68636556    -0.15370
F1018       F  0.54021352  0.09088481  0.64574231    -0.13000
C1019       C  0.97589083  0.32183367  0.61384082     0.25010
C1020       C  0.50537342  0.30146333  0.63566247    -0.23100
C1021       C  0.53409306  0.31100770  0.63672030     0.19920
C1022       C  0.53341858  0.34067166  0.61624597     0.24950
C1023       C  0.50364251  0.36170087  0.59470003    -0.23040
C1024       C  0.97488898  0.35175120  0.59368723     0.19850
F1025       F  0.94542616  0.37126951  0.57410486    -0.13000
F1026       F  0.94762515  0.31322307  0.61316109    -0.15360
F1027       F  0.56218119  0.34842864  0.61725813    -0.15370
F1028       F  0.56295909  0.29135022  0.65731776    -0.13000
C1029       C  0.83227267  0.46152429  0.89097251     0.25010
C1030       C  0.81406647  0.48736388  0.86279492    -0.23100
C1031       C  0.82510367  0.01469006  0.85553239     0.19920
C1032       C  0.85388381  0.01633856  0.87625428     0.24950
C1033       C  0.87255492  0.49038234  0.90461408    -0.23040
C1034       C  0.86131186  0.46280548  0.91150645     0.19850
F1035       F  0.87846778  0.43669468  0.93777863    -0.13000
F1036       F  0.82235004  0.43458248  0.89790455    -0.15360
F1037       F  0.86306591  0.04365116  0.86866433    -0.15370
F1038       F  0.80748751  0.04026302  0.82879959    -0.13000
C1039       C  0.63489553  0.02168108  0.88651019     0.25010
C1040       C  0.63461965  0.49238600  0.90765414    -0.23100
C1041       C  0.66424652  0.46252523  0.90742111     0.19920
C1042       C  0.69372383  0.46196305  0.88636189     0.24950
C1043       C  0.69372156  0.49098827  0.86444658    -0.23040
C1044       C  0.66413901  0.02083603  0.86462099     0.19850
F1045       F  0.66371727  0.04917200  0.84374885    -0.13000
F1046       F  0.60649478  0.05074444  0.88598183    -0.15360
F1047       F  0.72210142  0.43288288  0.88664650    -0.15370
F1048       F  0.66477264  0.43409482  0.92818474    -0.13000
C1049       C  0.84709557  0.47371475  0.65481752     0.25010
C1050       C  0.81398946  0.49095713  0.63807621    -0.23100
C1051       C  0.81087731  0.50898435  0.60003407     0.19920
C1052       C  0.84008746  0.50948881  0.57929347     0.24950
C1053       C  0.87271077  0.49277862  0.59660436    -0.23040
C1054       C  0.87611191  0.47501625  0.63444291     0.19850
F1055       F  0.90764273  0.45856732  0.65136955    -0.13000
F1056       F  0.85155814  0.45479795  0.69035961    -0.15360
F1057       F  0.83656981  0.02645922  0.54234076    -0.15370
F1058       F  0.77960767  0.52683508  0.58331139    -0.13000
C1059       C  0.67459764  0.01626122  0.61992226     0.25010
C1060       C  0.69724418  0.48479142  0.63527255    -0.23100
C1061       C  0.69039459  0.45503622  0.62807631     0.19920
C1062       C  0.66085043  0.45676306  0.60620932     0.24950
C1063       C  0.63748005  0.48847871  0.59145390    -0.23040
C1064       C  0.64492688  0.01818131  0.59824443     0.19850
F1065       F  0.62297836  0.04928244  0.58526456    -0.13000
F1066       F  0.68093634  0.04530943  0.62683665    -0.15360
F1067       F  0.65535906  0.42728167  0.59916799    -0.15370
F1068       F  0.71238732  0.42432401  0.64213621    -0.13000
O1069       O  0.59333734  0.96706248  0.07989170    -0.73880
O1070       O  0.59054233  0.51535952  0.04504312    -0.52790
C1071       C  0.60507251  0.99051309  0.07062939     0.79850
O1072       O  0.52397183  0.90620238  0.41778850    -0.58480
O1073       O  0.97686840  0.90888230  0.45519903    -0.51510
C1074       C  0.99983508  0.89526153  0.42726755     0.71860
O1075       O  0.59309374  0.96791847  0.42135085    -0.73040
O1076       O  0.58851223  0.51769194  0.45417136    -0.53600
C1077       C  0.60341362  0.99269355  0.42919676     0.77870
O1078       O  0.52622867  0.90523387  0.08333367    -0.58180
O1079       O  0.97903683  0.90748239  0.04633884    -0.51300
C1080       C  0.00277905  0.89356579  0.07349119     0.74460
Zr1081     Zr  0.54396670  0.95218148  0.06333327     2.54710
O1082       O  0.59450729  0.89988305  0.06683835    -0.78750
O1083       O  0.54042102  0.95701714  0.13928084    -0.92170
Zr1084     Zr  0.54423454  0.95167692  0.43871084     2.64680
O1085       O  0.59501479  0.89944655  0.43761108    -0.97120
O1086       O  0.54200703  0.95517999  0.36259734    -0.79180
O1087       O  0.56355629  0.96964316  0.00096002    -0.82540
O1088       O  0.52641905  0.93257501  0.50113977    -2.17250
O1089       O  0.91427577  0.51722713  0.08465123    -0.65930
O1090       O  0.91648082  0.97013820  0.04715618    -0.50490
C1091       C  0.90318024  0.49338819  0.07477403     0.72840
O1092       O  0.97880421  0.58302486  0.41943742    -0.58840
O1093       O  0.52693599  0.57969769  0.45531783    -0.50810
C1094       C  0.50307784  0.59393781  0.42845170     0.74640
O1095       O  0.91455637  0.51577672  0.41686152    -0.70230
O1096       O  0.91666289  0.96956087  0.45557196    -0.48910
C1097       C  0.90324110  0.49203735  0.42702567     0.76030
O1098       O  0.97774869  0.58397085  0.08091150    -0.65560
O1099       O  0.52678989  0.57979585  0.04605561    -0.52760
C1100       C  0.50227968  0.59435129  0.07187114     0.74410
Zr1101     Zr  0.96036676  0.53624584  0.06280775     2.77540
O1102       O  0.90848313  0.58742449  0.06118078    -0.96310
O1103       O  0.96294857  0.53583582  0.13892422    -0.77130
Zr1104     Zr  0.96038941  0.53579798  0.43836374     2.70070
O1105       O  0.90807452  0.58646260  0.43916527    -0.78380
O1106       O  0.96310137  0.53524568  0.36225158    -0.97460
Zr1107     Zr  0.53983701  0.53045245  0.00074002     2.21500
Zr1108     Zr  0.96545793  0.95723565  0.50136220     2.11130
O1109       O  0.94098086  0.51815703  0.50075154    -2.46150
O1110       O  0.97877954  0.55500072  0.00043797    -0.78170
O1111       O  0.98324884  0.97554675  0.06458301    -0.70370
O1112       O  0.52124177  0.51231922  0.43758629    -2.31320
O1113       O  0.52125542  0.51281614  0.06415407    -2.27530
O1114       O  0.98346502  0.97515187  0.43787011    -0.72130
H1115       H  0.53442465  0.90789480  0.50118259     0.79870
H1116       H  0.52966175  0.52062288  0.41339621     0.80960
H1117       H  0.91620848  0.52616337  0.00063324     0.83180
H1118       H  0.52979135  0.52115470  0.08821859     0.80790
H1119       H  0.54443010  0.97719565  0.35579678     0.43830
H1120       H  0.96581842  0.51159714  0.35438631     0.42800
H1121       H  0.90972497  0.59853971  0.46519511     0.42470
H1122       H  0.89193659  0.58103723  0.04424027     0.40410
H1123       H  0.97048191  0.51134336  0.14664301     0.43540
H1124       H  0.54664574  0.97703046  0.14596828     0.38320
H1125       H  0.60355163  0.89654267  0.03790178     0.44440
H1126       H  0.58909859  0.88310979  0.45545161     0.40860
H1127       H  0.89941221  0.58960328  0.09007129     0.45780
H1128       H  0.56008868  0.93709528  0.14950105     0.44500
H1129       H  0.59572332  0.89050903  0.40882693     0.44630
H1130       H  0.93955565  0.54939904  0.35317600     0.44990
C1131       C  0.50533216  0.77111132  0.15880831     0.04540
C1132       C  0.50338483  0.74299638  0.13716454    -0.11610
C1133       C  0.50005535  0.71542153  0.15902778     0.02040
C1134       C  0.49733218  0.71709870  0.20290759    -0.10130
C1135       C  0.50141438  0.74421620  0.22564155     0.04530
C1136       C  0.50596084  0.77096632  0.20262314    -0.09550
H1137       H  0.50503129  0.74253574  0.10332514     0.10130
H1138       H  0.49178390  0.69701494  0.21880367     0.07660
H1139       H  0.50972914  0.79218869  0.21804963     0.07510
C1140       C  0.49735845  0.77492055  0.33929575     0.04540
C1141       C  0.50126144  0.74474693  0.36131547    -0.11610
C1142       C  0.50494870  0.71448440  0.33977666     0.02040
C1143       C  0.50700705  0.71419684  0.29588729    -0.10130
C1144       C  0.50106446  0.74448888  0.27280807     0.04530
C1145       C  0.49511093  0.77494052  0.29541996    -0.09550
H1146       H  0.50139421  0.74481352  0.39516781     0.10130
H1147       H  0.51330932  0.68990289  0.28024201     0.07660
H1148       H  0.48871364  0.79913360  0.27942503     0.07510
C1149       C  0.78311074  0.98978242  0.16021169     0.04540
C1150       C  0.75621721  0.98524530  0.13802272    -0.11610
C1151       C  0.72769952  0.98363589  0.15919724     0.02040
C1152       C  0.72709965  0.98360818  0.20306354    -0.10130
C1153       C  0.75365462  0.98836756  0.22652231     0.04530
C1154       C  0.78061785  0.99315137  0.20395680    -0.09550
H1155       H  0.75713257  0.98316563  0.10423126     0.10130
H1156       H  0.70541240  0.98032607  0.21800190     0.07660
H1157       H  0.79990004  0.00006370  0.21974313     0.07510
C1158       C  0.78365104  0.98604485  0.34046585     0.04540
C1159       C  0.75441352  0.98735322  0.36257315    -0.11610
C1160       C  0.72450085  0.98986189  0.34099569     0.02040
C1161       C  0.72378914  0.99141572  0.29705969    -0.10130
C1162       C  0.75351741  0.98842252  0.27384444     0.04530
C1163       C  0.78351899  0.98515513  0.29665951    -0.09550
H1164       H  0.75459107  0.98743778  0.39650030     0.10130
H1165       H  0.69976000  0.99485708  0.28179775     0.07660
H1166       H  0.80745934  0.98161839  0.28121591     0.07510
C1167       C  0.98463583  0.63619145  0.36893286     0.25010
C1168       C  0.50374182  0.62485905  0.40599923    -0.23100
C1169       C  0.52369281  0.64328211  0.42097073     0.19920
C1170       C  0.52458591  0.67200919  0.39935389     0.24950
C1171       C  0.50520459  0.68338534  0.36257857    -0.23040
C1172       C  0.98512151  0.66516247  0.34782581     0.19850
F1173       F  0.96513313  0.67583105  0.31324705    -0.13000
F1174       F  0.96555512  0.61913022  0.35253729    -0.15360
F1175       F  0.54499946  0.68825319  0.41409301    -0.15370
F1176       F  0.54218216  0.63385418  0.45685653    -0.13000
C1177       C  0.97890231  0.84619768  0.41994130     0.25010
C1178       C  0.49852351  0.86480370  0.40452548    -0.23100
C1179       C  0.51708368  0.85377835  0.36713373     0.19920
C1180       C  0.51659796  0.82474922  0.34628211     0.24950
C1181       C  0.49697861  0.80622108  0.36160650    -0.23090
C1182       C  0.97794929  0.81746310  0.39856031     0.19850
F1183       F  0.95789565  0.80100893  0.41380380    -0.13000
F1184       F  0.96089994  0.85536197  0.45612569    -0.15360
F1185       F  0.53623651  0.81427405  0.31149066    -0.15370
F1186       F  0.53576022  0.87109590  0.35030637    -0.13000
C1187       C  0.98262330  0.65763606  0.07762238     0.25010
C1188       C  0.50230630  0.62517180  0.09323945    -0.23100
C1189       C  0.52117669  0.62223048  0.13018729     0.19920
C1190       C  0.52048042  0.65152986  0.15145390     0.24950
C1191       C  0.50042154  0.68436785  0.13632330    -0.23040
C1192       C  0.98150324  0.68706729  0.09905105     0.19850
F1193       F  0.96125037  0.71809618  0.08385872    -0.13000
F1194       F  0.96435171  0.66076060  0.04170601    -0.15360
F1195       F  0.54006884  0.64771948  0.18636176    -0.15370
F1196       F  0.54018575  0.59089654  0.14573907    -0.13000
C1197       C  0.97588061  0.82184235  0.11384389     0.25010
C1198       C  0.50536224  0.80147417  0.13566917    -0.23100
C1199       C  0.53408006  0.81102164  0.13673009     0.19920
C1200       C  0.53340497  0.84068558  0.11625452     0.24950
C1201       C  0.50363015  0.86171188  0.09470386    -0.23040
C1202       C  0.97487817  0.85175977  0.09368908     0.19850
F1203       F  0.94541615  0.87127550  0.07410316    -0.13000
F1204       F  0.94761621  0.81322969  0.11316147    -0.15360
F1205       F  0.56216598  0.84844521  0.11726982    -0.15370
F1206       F  0.56294536  0.79136678  0.15733089    -0.13000
C1207       C  0.83229297  0.96151619  0.39096079     0.25010
C1208       C  0.81408880  0.98735430  0.36278002    -0.23100
C1209       C  0.82512970  0.51467782  0.35551421     0.19920
C1210       C  0.85390955  0.51632614  0.37623797     0.24950
C1211       C  0.87257673  0.99037264  0.40460332    -0.23040
C1212       C  0.86133162  0.96279730  0.41149648     0.19850
F1213       F  0.87848459  0.93668810  0.43777222    -0.13000
F1214       F  0.82236825  0.93457609  0.39789546    -0.15360
F1215       F  0.86309469  0.54363644  0.36864521    -0.15370
F1216       F  0.80751652  0.54024945  0.32877821    -0.13000
C1217       C  0.63491880  0.52166203  0.38652131     0.25010
C1218       C  0.63464306  0.99236413  0.40765844    -0.23100
C1219       C  0.66427023  0.96250356  0.40742171     0.19920
C1220       C  0.69374768  0.96194460  0.38636501     0.24950
C1221       C  0.69374478  0.99097297  0.36445635    -0.23040
C1222       C  0.66416203  0.52082032  0.36463497     0.19850
F1223       F  0.66373945  0.54915887  0.34376813    -0.13000
F1224       F  0.60651781  0.55072522  0.38599632    -0.15360
F1225       F  0.72212539  0.93286451  0.38664432    -0.15370
F1226       F  0.66479651  0.93407038  0.42817893    -0.13000
C1227       C  0.84707771  0.97370673  0.15479312     0.25010
C1228       C  0.81397104  0.99096001  0.13805964    -0.23100
C1229       C  0.81085787  0.00899478  0.10002335     0.19920
C1230       C  0.84006794  0.00950009  0.07928358     0.24950
C1231       C  0.87269174  0.99278182  0.09658936    -0.23040
C1232       C  0.87609398  0.97500807  0.13441922     0.19850
F1233       F  0.90762557  0.95854969  0.15133909    -0.13000
F1234       F  0.85154030  0.95478109  0.19032783    -0.15360
F1235       F  0.83654988  0.52647879  0.04233689    -0.15370
F1236       F  0.77958768  0.02685244  0.08330671    -0.13000
C1237       C  0.67456680  0.51628792  0.11993621     0.25010
C1238       C  0.69721624  0.98481720  0.13528084    -0.23100
C1239       C  0.69036956  0.95506125  0.12807826     0.19920
C1240       C  0.66082597  0.95678791  0.10621031     0.24950
C1241       C  0.63745329  0.98850398  0.09145948    -0.23040
C1242       C  0.64489654  0.51820772  0.09825689     0.19850
F1243       F  0.62294552  0.54930909  0.08528125    -0.13000
F1244       F  0.68090320  0.54533673  0.12685546    -0.15360
F1245       F  0.65533791  0.92730568  0.09916228    -0.15370
F1246       F  0.71236528  0.92434815  0.14213168    -0.13000
O1247       O  0.59336084  0.96704043  0.57988970    -0.73880
O1248       O  0.59056765  0.51533689  0.54504124    -0.52790
C1249       C  0.60509773  0.99048961  0.57062632     0.79850
O1250       O  0.52395942  0.90621483  0.91778263    -0.58480
O1251       O  0.97685733  0.90889137  0.95519340    -0.51510
C1252       C  0.99982383  0.89527223  0.92726122     0.71860
O1253       O  0.59307184  0.96793977  0.92134753    -0.73040
O1254       O  0.58848817  0.51771381  0.95416820    -0.53600
C1255       C  0.60339017  0.99271589  0.92919294     0.77870
O1256       O  0.52624324  0.90522095  0.58333232    -0.58180
O1257       O  0.97904875  0.90747407  0.54633974    -0.51300
C1258       C  0.00279194  0.89355515  0.57349000     0.74460
Zr1259     Zr  0.54398548  0.95216600  0.56333442     2.54710
O1260       O  0.59452256  0.89986411  0.56683660    -0.78750
O1261       O  0.54044321  0.95699992  0.63928225    -0.92170
Zr1262     Zr  0.54421720  0.95169213  0.93870855     2.64680
O1263       O  0.59500114  0.89946536  0.93760689    -0.97120
O1264       O  0.54198820  0.95519688  0.86259515    -0.79180
O1265       O  0.56357615  0.96962621  0.50096129    -0.82540
O1266       O  0.52640483  0.93258717  0.00113771    -2.17250
O1267       O  0.91429978  0.51721787  0.58466441    -0.65930
O1268       O  0.91649473  0.97013540  0.54716267    -0.50490
C1269       C  0.90319945  0.49338267  0.57478566     0.72840
O1270       O  0.97877704  0.58304039  0.91943688    -0.58840
O1271       O  0.52690766  0.57971549  0.95531836    -0.50810
C1272       C  0.50304909  0.59395516  0.92845276     0.74640
O1273       O  0.91453455  0.51578665  0.91686644    -0.70230
O1274       O  0.91664694  0.96956737  0.95557390    -0.48910
C1275       C  0.90322141  0.49204593  0.92703120     0.76030
O1276       O  0.97777671  0.58395618  0.58091361    -0.65560
O1277       O  0.52681862  0.57977808  0.54605737    -0.52760
C1278       C  0.50230885  0.59433478  0.57187296     0.74410
Zr1279     Zr  0.96039001  0.53623421  0.56281141     2.77540
O1280       O  0.90850813  0.58741459  0.56118574    -0.96310
O1281       O  0.96297603  0.53582557  0.63892766    -0.77130
Zr1282     Zr  0.96036839  0.53580889  0.93836082     2.70070
O1283       O  0.90805148  0.58647155  0.93915540    -0.78380
O1284       O  0.96308249  0.53525121  0.86224876    -0.97460
Zr1285     Zr  0.53986042  0.53043556  0.50074139     2.21500
Zr1286     Zr  0.96544401  0.95724356  0.00135911     2.11130
O1287       O  0.94096212  0.51816500  0.00074782    -2.46150
O1288       O  0.97880328  0.55498757  0.50044073    -0.78170
O1289       O  0.98326755  0.97553527  0.56458552    -0.70370
O1290       O  0.52122074  0.51233441  0.93758441    -2.31320
O1291       O  0.52127855  0.51280065  0.56415616    -2.27530
O1292       O  0.98344784  0.97516266  0.93786688    -0.72130
H1293       H  0.53441220  0.90790686  0.00118069     0.79870
H1294       H  0.52963982  0.52063923  0.91339454     0.80960
H1295       H  0.91622713  0.52615714  0.50063739     0.83180
H1296       H  0.52981599  0.52113804  0.58822040     0.80790
H1297       H  0.54441031  0.97721307  0.85579505     0.43830
H1298       H  0.96579787  0.51160261  0.85438593     0.42800
H1299       H  0.90969546  0.59854619  0.96518991     0.42470
H1300       H  0.89195939  0.58102725  0.54424954     0.40410
H1301       H  0.97051243  0.51133305  0.64664711     0.43540
H1302       H  0.54667002  0.97701199  0.64596960     0.38320
H1303       H  0.60356777  0.89652511  0.53790043     0.44440
H1304       H  0.58908691  0.88312675  0.95544637     0.40860
H1305       H  0.89943974  0.58959572  0.59007765     0.45780
H1306       H  0.56011030  0.93707683  0.64950101     0.44500
H1307       H  0.59571059  0.89052852  0.90882224     0.44630
H1308       H  0.93953741  0.54940539  0.85317182     0.44990
C1309       C  0.50534223  0.77110226  0.65880318     0.04540
C1310       C  0.50340009  0.74298475  0.63716109    -0.11610
C1311       C  0.50007014  0.71541097  0.65902574     0.02040
C1312       C  0.49734131  0.71709175  0.70290510    -0.10130
C1313       C  0.50141735  0.74421317  0.72563787     0.04530
C1314       C  0.50596481  0.77096185  0.70261780    -0.09550
H1315       H  0.50505084  0.74252136  0.60332197     0.10130
H1316       H  0.49179317  0.69700792  0.71880097     0.07660
H1317       H  0.50972952  0.79218674  0.71804231     0.07510
C1318       C  0.49734933  0.77492978  0.83928901     0.04540
C1319       C  0.50124644  0.74475909  0.86131195    -0.11610
C1320       C  0.50493223  0.71449562  0.83977660     0.02040
C1321       C  0.50699634  0.71420293  0.79588788    -0.10130
C1322       C  0.50106059  0.74449163  0.77280452     0.04530
C1323       C  0.49510749  0.77494530  0.79541274    -0.09550
H1324       H  0.50137554  0.74482855  0.89516427     0.10130
H1325       H  0.51329774  0.68990740  0.78024690     0.07660
H1326       H  0.48871423  0.79913664  0.77941501     0.07510
C1327       C  0.78312872  0.98977309  0.66022274     0.04540
C1328       C  0.75624259  0.98522616  0.63802776    -0.11610
C1329       C  0.72772362  0.98361237  0.65919521     0.02040
C1330       C  0.72711525  0.98358953  0.70306100    -0.10130
C1331       C  0.75366163  0.98835888  0.72652573     0.04530
C1332       C  0.78062668  0.99314633  0.70396731    -0.09550
H1333       H  0.75716402  0.98314318  0.60423669     0.10130
H1334       H  0.70542763  0.98030449  0.71799493     0.07660
H1335       H  0.79990202  0.00006585  0.71975925     0.07510
C1336       C  0.78363304  0.98605139  0.84047554     0.04540
C1337       C  0.75439048  0.98736656  0.86257588    -0.11610
C1338       C  0.72448116  0.98987441  0.84099117     0.02040
C1339       C  0.72377840  0.99142130  0.79705437    -0.10130
C1340       C  0.75351287  0.98842112  0.77384728     0.04530
C1341       C  0.78351030  0.98515388  0.79666982    -0.09550
H1342       H  0.75456184  0.98745641  0.89650305     0.10130
H1343       H  0.69975204  0.99486247  0.78178508     0.07660
H1344       H  0.80745426  0.98161204  0.78123195     0.07510
C1345       C  0.98460655  0.63621098  0.86893613     0.25010
C1346       C  0.50371192  0.62487761  0.90600267    -0.23100
C1347       C  0.52366360  0.64329951  0.92097560     0.19920
C1348       C  0.52456020  0.67202476  0.89935824     0.24950
C1349       C  0.50518147  0.68340047  0.86258125    -0.23040
C1350       C  0.98509577  0.66518037  0.84782844     0.19850
F1351       F  0.96510930  0.67584961  0.81324824    -0.13000
F1352       F  0.96552386  0.61915182  0.85254054    -0.15360
F1353       F  0.54497531  0.68826683  0.91409794    -0.15370
F1354       F  0.54215104  0.63387170  0.95686279    -0.13000
C1355       C  0.97888959  0.84620972  0.91993133     0.25010
C1356       C  0.49851296  0.86481438  0.90451804    -0.23100
C1357       C  0.51707516  0.85378790  0.86712778     0.19920
C1358       C  0.51658954  0.82475873  0.84627562     0.24950
C1359       C  0.49696825  0.80623176  0.86159799    -0.23090
C1360       C  0.97793639  0.81747559  0.89854970     0.19850
F1361       F  0.95787996  0.80102357  0.91379080    -0.13000
F1362       F  0.96088497  0.85537491  0.95611404    -0.15360
F1363       F  0.53623028  0.81428226  0.81148611    -0.15370
F1364       F  0.53575382  0.87110416  0.85030266    -0.13000
C1365       C  0.98265079  0.65761912  0.57761973     0.25010
C1366       C  0.50233530  0.62515618  0.59323889    -0.23100
C1367       C  0.52120302  0.62221757  0.63018853     0.19920
C1368       C  0.52050186  0.65151868  0.65145526     0.24950
C1369       C  0.50044109  0.68435526  0.63632248    -0.23040
C1370       C  0.98152606  0.68705181  0.59904816     0.19850
F1371       F  0.96127154  0.71807932  0.58385373    -0.13000
F1372       F  0.96438158  0.66074092  0.54170186    -0.15360
F1373       F  0.54008691  0.64771157  0.68636559    -0.15370
F1374       F  0.54021347  0.59088481  0.64574234    -0.13000
C1375       C  0.97589084  0.82183366  0.61384081     0.25010
C1376       C  0.50537343  0.80146333  0.63566248    -0.23100
C1377       C  0.53409306  0.81100771  0.63672033     0.19920
C1378       C  0.53341859  0.84067167  0.61624600     0.24950
C1379       C  0.50364252  0.86170087  0.59470004    -0.23040
C1380       C  0.97488898  0.85175120  0.59368722     0.19850
F1381       F  0.94542617  0.87126949  0.57410483    -0.13000
F1382       F  0.94762516  0.81322306  0.61316106    -0.15360
F1383       F  0.56218120  0.84842865  0.61725817    -0.15370
F1384       F  0.56295909  0.79135023  0.65731780    -0.13000
C1385       C  0.83227269  0.96152427  0.89097249     0.25010
C1386       C  0.81406648  0.98736387  0.86279493    -0.23100
C1387       C  0.82510368  0.51469005  0.85553236     0.19920
C1388       C  0.85388382  0.51633855  0.87625426     0.24950
C1389       C  0.87255493  0.99038233  0.90461408    -0.23040
C1390       C  0.86131189  0.96280546  0.91150642     0.19850
F1391       F  0.87846783  0.93669464  0.93777857    -0.13000
F1392       F  0.82235009  0.93458245  0.89790450    -0.15360
F1393       F  0.86306594  0.54365114  0.86866428    -0.15370
F1394       F  0.80748753  0.54026300  0.82879954    -0.13000
C1395       C  0.63489553  0.52168109  0.88651020     0.25010
C1396       C  0.63461966  0.99238599  0.90765414    -0.23100
C1397       C  0.66424653  0.96252522  0.90742112     0.19920
C1398       C  0.69372384  0.96196304  0.88636189     0.24950
C1399       C  0.69372157  0.99098826  0.86444658    -0.23040
C1400       C  0.66413900  0.52083605  0.86462100     0.19850
F1401       F  0.66371726  0.54917201  0.84374886    -0.13000
F1402       F  0.60649478  0.55074445  0.88598184    -0.15360
F1403       F  0.72210143  0.93288287  0.88664651    -0.15370
F1404       F  0.66477266  0.93409481  0.92818475    -0.13000
C1405       C  0.84709557  0.97371475  0.65481753     0.25010
C1406       C  0.81398946  0.99095713  0.63807621    -0.23100
C1407       C  0.81087732  0.00898434  0.60003407     0.19920
C1408       C  0.84008747  0.00948881  0.57929347     0.24950
C1409       C  0.87271077  0.99277862  0.59660437    -0.23040
C1410       C  0.87611192  0.97501625  0.63444292     0.19850
F1411       F  0.90764274  0.95856732  0.65136956    -0.13000
F1412       F  0.85155814  0.95479796  0.69035962    -0.15360
F1413       F  0.83656980  0.52645923  0.54234076    -0.15370
F1414       F  0.77960768  0.02683508  0.58331139    -0.13000
C1415       C  0.67459764  0.51626121  0.61992225     0.25010
C1416       C  0.69724419  0.98479142  0.63527256    -0.23100
C1417       C  0.69039460  0.95503622  0.62807631     0.19920
C1418       C  0.66085044  0.95676307  0.60620931     0.24950
C1419       C  0.63748006  0.98847872  0.59145390    -0.23040
C1420       C  0.64492688  0.51818130  0.59824442     0.19850
F1421       F  0.62297836  0.54928243  0.58526455    -0.13000
F1422       F  0.68093635  0.54530942  0.62683664    -0.15360
F1423       F  0.65535908  0.92728167  0.59916797    -0.15370
F1424       F  0.71238733  0.92432401  0.64213620    -0.13000
loop_ 
_geom_bond_atom_site_label_1 
_geom_bond_atom_site_label_2 
_geom_bond_distance 
_geom_bond_site_symmetry_2 
_ccdc_geom_bond_type 
O1          Zr13   2.426       .  S
O1            C3   1.285       .  A
O2          Zr39   2.434       .  S
O2          C359   1.288   1_545  A
C3          O358   1.288       .  A
C3          C173   1.484       .  S
O4          Zr16   2.449       .  S
O4          C718   1.290   1_455  A
O5          Zr40   2.414       .  S
O5            C6   1.285       .  A
C6          O716   1.290       .  A
C6          C822   1.490       .  S
O7          Zr16   2.445       .  S
O7            C9   1.289       .  A
O8         Zr217   2.421       .  S
O8          C365   1.286   1_545  A
C9          O364   1.286       .  A
C9          C150   1.474       .  S
O10         Zr13   2.432       .  S
O10         C724   1.286       .  A
O11        Zr218   2.424       .  S
O11          C12   1.287       .  A
C12         O722   1.286       .  A
C12         C845   1.487       .  S
Zr13         O14   2.433       .  S
Zr13         O15   2.436       .  S
Zr13         O19   2.371       .  S
Zr13        O198   2.369       .  S
Zr13        O755   2.368   1_455  S
Zr13        O401   2.371       .  S
O14          H57   0.990       .  S
O15          H56   0.990       .  S
O15          H60   0.990       .  S
Zr16         O17   2.435       .  S
Zr16         O18   2.436       .  S
Zr16         O20   2.369       .  S
Zr16        O197   2.372       .  S
Zr16        O400   2.371       .  S
Zr16        O758   2.370   1_455  S
O17          H58   0.990       .  S
O17          H61   0.990       .  S
O18          H51   0.990       .  S
O19        Zr194   2.372   1_554  S
O19        Zr395   2.378       .  S
O20        Zr191   2.369       .  S
O20        Zr752   2.379   1_455  S
O20          H47   0.966       .  S
O21         Zr33   2.445       .  S
O21          C23   1.287   1_545  A
O22        Zr218   2.416       .  S
O22         C379   1.284       .  A
C23         O378   1.284       .  A
C23         C519   1.464       .  S
O24         Zr36   2.451       .  S
O24         C738   1.291       .  A
O25        Zr217   2.419       .  S
O25          C26   1.286       .  A
C26         O736   1.291   1_455  A
C26         C100   1.492       .  S
O27         Zr36   2.457       .  S
O27          C29   1.291   1_545  A
O28         Zr40   2.409       .  S
O28         C385   1.284       .  A
C29         O384   1.284       .  A
C29         C499   1.494       .  S
O30         Zr33   2.439       .  S
O30         C744   1.287       .  A
O31         Zr39   2.423       .  S
O31          C32   1.285       .  A
C32         O742   1.287   1_455  A
C32         C120   1.464       .  S
Zr33         O34   2.435       .  S
Zr33         O35   2.434       .  S
Zr33         O42   2.372       .  S
Zr33        O219   2.371       .  S
Zr33        O757   2.375       .  S
Zr33        O399   2.374   1_545  S
O34          H54   0.990       .  S
O34          H59   0.990       .  S
O35          H55   0.990       .  S
Zr36         O37   2.434       .  S
Zr36         O38   2.435       .  S
Zr36         O41   2.371       .  S
Zr36        O220   2.373       .  S
Zr36        O402   2.371   1_545  S
Zr36        O756   2.373       .  S
O37          H53   0.990       .  S
O38          H52   0.990       .  S
O38          H62   0.990       .  S
Zr39        O186   2.421   1_554  S
Zr39        O203   2.419   1_554  S
Zr39         O45   2.383       .  S
Zr39        O375   2.378   1_545  S
Zr39        O754   2.382   1_455  S
Zr39        O222   2.386   1_554  S
Zr40        O189   2.424       .  S
Zr40        O200   2.416       .  S
Zr40         O46   2.380       .  S
Zr40        O732   2.379       .  S
Zr40        O397   2.383       .  S
Zr40        O221   2.376       .  S
O41        Zr211   2.371       .  S
O41        Zr396   2.383   1_545  S
O41         H227   0.966       .  S
O42        Zr214   2.373   1_554  S
O42        Zr751   2.382       .  S
O43        Zr725   2.368       .  S
O43        Zr389   2.374       .  S
O43        Zr218   2.376       .  S
O44        Zr372   2.371   1_545  S
O44        Zr748   2.373   1_455  S
O44        Zr217   2.386       .  S
O44          H48   0.966       .  S
O45        Zr369   2.371   1_545  S
O45        Zr745   2.375   1_455  S
O45          H50   0.966       .  S
O46        Zr728   2.370       .  S
O46        Zr392   2.371       .  S
H49         O219   0.966       .  S
C63         C130   1.473       .  S
C63          C64   1.397       .  A
C63          C68   1.400       .  A
C64          C65   1.401       .  A
C64          H69   1.083       .  S
C65         C123   1.488       .  S
C65          C66   1.407   1_455  A
C66          C67   1.413   1_655  A
C66          H70   1.079       .  S
C67          C76   1.507       .  S
C67          C68   1.412       .  A
C68          H71   1.080       .  S
C72         C113   1.491       .  S
C72          C73   1.405   1_655  A
C72          C77   1.405       .  A
C73          C74   1.404       .  A
C73          H78   1.082       .  S
C74         C103   1.491       .  S
C74          C75   1.405       .  A
C75          C76   1.411       .  A
C75          H79   1.080       .  S
C76          C77   1.410   1_455  A
C77          H80   1.079       .  S
C81         C160   1.491       .  S
C81          C82   1.401       .  A
C81          C86   1.405       .  A
C82          C83   1.396       .  A
C82          H87   1.083       .  S
C83         C170   1.472       .  S
C83          C84   1.402       .  A
C84          C85   1.414       .  A
C84          H88   1.079       .  S
C85          C94   1.512       .  S
C85          C86   1.415       .  A
C86          H89   1.078       .  S
C90         C140   1.478       .  S
C90          C91   1.398       .  A
C90          C95   1.400       .  A
C91          C92   1.399       .  A
C91          H96   1.084       .  S
C92         C153   1.477       .  S
C92          C93   1.405       .  A
C93          C94   1.415       .  A
C93          H97   1.079       .  S
C94          C95   1.414       .  A
C95          H98   1.078       .  S
C99         C104   1.397       .  A
C99         C812   1.410       .  A
C99         F106   1.358       .  S
C100        C101   1.413       .  A
C100        C811   1.410   1_455  A
C101        C102   1.402       .  A
C101        F108   1.358       .  S
C102        C103   1.407       .  A
C102        F107   1.358       .  S
C103        C816   1.409   1_455  A
C104        C815   1.409       .  A
C104        F105   1.358       .  S
C109        C114   1.401       .  A
C109        C822   1.413       .  A
C109        F116   1.358       .  S
C110        C718   1.490       .  S
C110        C111   1.409   1_655  A
C110        C821   1.413       .  A
C111        C112   1.397       .  A
C111        F118   1.358       .  S
C112        C113   1.409   1_455  A
C112        F117   1.358       .  S
C113        C826   1.407       .  A
C114        C825   1.407       .  A
C114        F115   1.358       .  S
C119        C124   1.399       .  A
C119        C832   1.401       .  A
C119        F126   1.358       .  S
C120        C121   1.400       .  A
C120        C831   1.401   1_455  A
C121        C122   1.397       .  A
C121        F128   1.358       .  S
C122        C123   1.411       .  A
C122        F127   1.358       .  S
C123        C836   1.411   1_455  A
C124        C835   1.411       .  A
C124        F125   1.358       .  S
C129        C134   1.398       .  A
C129        C842   1.403       .  A
C129        F136   1.358       .  S
C130        C131   1.400       .  A
C130        C841   1.403   1_455  A
C131        C132   1.397       .  A
C131        F138   1.358       .  S
C132        C133   1.415       .  A
C132        F137   1.358       .  S
C133        C724   1.487       .  S
C133        C846   1.412   1_455  A
C134        C845   1.412       .  A
C134        F135   1.358       .  S
C139        C140   1.400       .  A
C139        C144   1.399       .  A
C139        F146   1.358       .  S
C140        C497   1.404       .  A
C141        C142   1.398       .  A
C141        C496   1.404   1_545  A
C141        F148   1.358       .  S
C142        C499   1.412   1_545  A
C142        F147   1.358       .  S
C143        C385   1.494       .  S
C143        C144   1.417       .  A
C143        C498   1.412       .  A
C144        F145   1.358       .  S
C149        C154   1.400       .  A
C149        C506   1.406   1_545  A
C149        F156   1.358       .  S
C150        C151   1.406       .  A
C150        C505   1.406       .  A
C151        C152   1.399       .  A
C151        F158   1.358       .  S
C152        C153   1.405       .  A
C152        F157   1.358       .  S
C153        C510   1.404       .  A
C154        C509   1.404   1_545  A
C154        F155   1.358       .  S
C159        C160   1.413       .  A
C159        C164   1.397       .  A
C159        F166   1.358       .  S
C160        C161   1.412       .  A
C161        C162   1.399       .  A
C161        F168   1.357       .  S
C162        C163   1.401       .  A
C162        F523   1.358       .  S
C163        C379   1.464       .  S
C163        C164   1.399       .  A
C164        F165   1.358       .  S
F167        C518   1.358       .  S
C169        C174   1.398       .  A
C169        C526   1.403   1_545  A
C169        F176   1.358       .  S
C170        C171   1.399       .  A
C170        C525   1.403       .  A
C171        C172   1.399       .  A
C171        F178   1.358       .  S
C172        C173   1.414       .  A
C172        F177   1.358       .  S
C173        C530   1.409       .  A
C174        C529   1.409   1_545  A
C174        F175   1.358       .  S
O179       Zr191   2.426       .  S
O179        C181   1.285       .  A
O180       Zr217   2.434       .  S
O180        C537   1.288   1_545  A
C181        O536   1.288       .  A
C181        C351   1.484       .  S
O182       Zr194   2.449       .  S
O182        C896   1.290   1_455  A
O183       Zr218   2.414   1_556  S
O183        C184   1.285       .  A
C184        O894   1.290       .  A
C184       C1000   1.490       .  S
O185       Zr194   2.445       .  S
O185        C187   1.289       .  A
O186        C543   1.286   1_545  A
C187        O542   1.286       .  A
C187        C328   1.474       .  S
O188       Zr191   2.432       .  S
O188        C902   1.286       .  A
O189        C190   1.287       .  A
C190        O900   1.286       .  A
C190       C1023   1.487       .  S
Zr191       O192   2.433       .  S
Zr191       O193   2.436       .  S
Zr191       O197   2.371       .  S
Zr191       O933   2.368   1_455  S
Zr191       O579   2.371       .  S
O192        H235   0.990       .  S
O193        H234   0.990       .  S
O193        H238   0.990       .  S
Zr194       O195   2.435       .  S
Zr194       O196   2.436       .  S
Zr194       O198   2.369   1_556  S
Zr194       O578   2.371       .  S
Zr194       O936   2.370   1_455  S
O195        H236   0.990       .  S
O195        H239   0.990       .  S
O196        H229   0.990       .  S
O197       Zr573   2.378       .  S
O198       Zr930   2.379   1_455  S
O198        H225   0.966       .  S
O199       Zr211   2.445       .  S
O199        C201   1.287   1_545  A
O200        C557   1.284       .  A
C201        O556   1.284       .  A
C201        C697   1.464       .  S
O202       Zr214   2.451       .  S
O202        C916   1.291       .  A
O203        C204   1.286       .  A
C204        O914   1.291   1_455  A
C204        C278   1.492       .  S
O205       Zr214   2.457       .  S
O205        C207   1.291   1_545  A
O206       Zr218   2.409   1_556  S
O206        C563   1.284       .  A
C207        O562   1.284       .  A
C207        C677   1.493       .  S
O208       Zr211   2.439       .  S
O208        C922   1.287       .  A
O209       Zr217   2.423       .  S
O209        C210   1.285       .  A
C210        O920   1.287   1_455  A
C210        C298   1.464       .  S
Zr211       O212   2.435       .  S
Zr211       O213   2.434       .  S
Zr211       O220   2.372       .  S
Zr211       O935   2.375       .  S
Zr211       O577   2.374   1_545  S
O212        H232   0.990       .  S
O212        H237   0.990       .  S
O213        H233   0.990       .  S
Zr214       O215   2.434       .  S
Zr214       O216   2.435       .  S
Zr214       O219   2.371   1_556  S
Zr214       O580   2.371   1_545  S
Zr214       O934   2.373       .  S
O215        H231   0.990       .  S
O216        H230   0.990       .  S
O216        H240   0.990       .  S
Zr217       O553   2.378   1_545  S
Zr217       O932   2.382   1_455  S
Zr217       O223   2.383       .  S
Zr218       O910   2.379       .  S
Zr218       O575   2.383       .  S
Zr218       O224   2.380   1_554  S
O219       Zr574   2.383   1_545  S
O220       Zr929   2.382       .  S
O221       Zr903   2.368       .  S
O221       Zr567   2.374       .  S
O222       Zr550   2.371   1_545  S
O222       Zr926   2.373   1_455  S
O222        H226   0.966       .  S
O223       Zr547   2.371   1_545  S
O223       Zr923   2.375   1_455  S
O223        H228   0.966       .  S
O224       Zr906   2.370       .  S
O224       Zr570   2.371       .  S
C241        C308   1.473       .  S
C241        C242   1.397       .  A
C241        C246   1.400       .  A
C242        C243   1.401       .  A
C242        H247   1.083       .  S
C243        C301   1.488       .  S
C243        C244   1.407   1_455  A
C244        C245   1.413   1_655  A
C244        H248   1.079       .  S
C245        C254   1.507       .  S
C245        C246   1.412       .  A
C246        H249   1.080       .  S
C250        C291   1.491       .  S
C250        C251   1.405   1_655  A
C250        C255   1.405       .  A
C251        C252   1.404       .  A
C251        H256   1.082       .  S
C252        C281   1.491       .  S
C252        C253   1.405       .  A
C253        C254   1.411       .  A
C253        H257   1.080       .  S
C254        C255   1.410   1_455  A
C255        H258   1.079       .  S
C259        C338   1.491       .  S
C259        C260   1.401       .  A
C259        C264   1.405       .  A
C260        C261   1.396       .  A
C260        H265   1.083       .  S
C261        C348   1.472       .  S
C261        C262   1.402       .  A
C262        C263   1.414       .  A
C262        H266   1.079       .  S
C263        C272   1.512       .  S
C263        C264   1.415       .  A
C264        H267   1.078       .  S
C268        C318   1.478       .  S
C268        C269   1.398       .  A
C268        C273   1.400       .  A
C269        C270   1.399       .  A
C269        H274   1.084       .  S
C270        C331   1.477       .  S
C270        C271   1.405       .  A
C271        C272   1.415       .  A
C271        H275   1.079       .  S
C272        C273   1.414       .  A
C273        H276   1.078       .  S
C277        C990   1.410       .  A
C277        C282   1.397       .  A
C277        F284   1.358       .  S
C278        C989   1.410   1_455  A
C278        C279   1.413       .  A
C279        C280   1.401       .  A
C279        F286   1.358       .  S
C280        C281   1.407       .  A
C280        F285   1.358       .  S
C281        C994   1.409   1_455  A
C282        C993   1.409       .  A
C282        F283   1.358       .  S
C287       C1000   1.413       .  A
C287        C292   1.401       .  A
C287        F294   1.358       .  S
C288        C896   1.490       .  S
C288        C999   1.413       .  A
C288        C289   1.409   1_655  A
C289        C290   1.397       .  A
C289        F296   1.358       .  S
C290        C291   1.409   1_455  A
C290        F295   1.358       .  S
C291       C1004   1.407       .  A
C292       C1003   1.407       .  A
C292        F293   1.358       .  S
C297       C1010   1.401       .  A
C297        C302   1.399       .  A
C297        F304   1.358       .  S
C298       C1009   1.401   1_455  A
C298        C299   1.400       .  A
C299        C300   1.397       .  A
C299        F306   1.358       .  S
C300        C301   1.411       .  A
C300        F305   1.358       .  S
C301       C1014   1.411   1_455  A
C302       C1013   1.411       .  A
C302        F303   1.358       .  S
C307       C1020   1.403       .  A
C307        C312   1.398       .  A
C307        F314   1.358       .  S
C308       C1019   1.403   1_455  A
C308        C309   1.400       .  A
C309        C310   1.397       .  A
C309        F316   1.358       .  S
C310        C311   1.415       .  A
C310        F315   1.358       .  S
C311        C902   1.487       .  S
C311       C1024   1.412   1_455  A
C312       C1023   1.412       .  A
C312        F313   1.358       .  S
C317        C318   1.400       .  A
C317        C322   1.399       .  A
C317        F324   1.358       .  S
C318        C675   1.404       .  A
C319        C674   1.404   1_545  A
C319        C320   1.398       .  A
C319        F326   1.358       .  S
C320        C677   1.412   1_545  A
C320        F325   1.358       .  S
C321        C563   1.493       .  S
C321        C676   1.412       .  A
C321        C322   1.417       .  A
C322        F323   1.358       .  S
C327        C684   1.406   1_545  A
C327        C332   1.400       .  A
C327        F334   1.358       .  S
C328        C683   1.406       .  A
C328        C329   1.406       .  A
C329        C330   1.399       .  A
C329        F336   1.358       .  S
C330        C331   1.405       .  A
C330        F335   1.358       .  S
C331        C688   1.404       .  A
C332        C687   1.404   1_545  A
C332        F333   1.358       .  S
C337        C338   1.413       .  A
C337        C342   1.398       .  A
C337        F344   1.358       .  S
C338        C339   1.412       .  A
C339        C340   1.399       .  A
C339        F346   1.357       .  S
C340        C341   1.401       .  A
C340        F701   1.358       .  S
C341        C557   1.464       .  S
C341        C342   1.399       .  A
C342        F343   1.358       .  S
F345        C696   1.358       .  S
C347        C704   1.403   1_545  A
C347        C352   1.398       .  A
C347        F354   1.358       .  S
C348        C703   1.403       .  A
C348        C349   1.399       .  A
C349        C350   1.399       .  A
C349        F356   1.358       .  S
C350        C351   1.414       .  A
C350        F355   1.358       .  S
C351        C708   1.409       .  A
C352        C707   1.409   1_545  A
C352        F353   1.358       .  S
O357       Zr369   2.426       .  S
O357        C359   1.285       .  A
O358       Zr395   2.434       .  S
C359        C529   1.484       .  S
O360       Zr372   2.449       .  S
O360       C1074   1.290   1_455  A
O361       Zr396   2.414       .  S
O361        C362   1.285       .  A
C362       O1072   1.290       .  A
C362       C1178   1.490       .  S
O363       Zr372   2.445       .  S
O363        C365   1.289       .  A
O364       Zr573   2.421       .  S
C365        C506   1.474       .  S
O366       Zr369   2.432       .  S
O366       C1080   1.286       .  A
O367       Zr574   2.424       .  S
O367        C368   1.287       .  A
C368       O1078   1.286       .  A
C368       C1201   1.487       .  S
Zr369       O370   2.433       .  S
Zr369       O371   2.436       .  S
Zr369       O375   2.371       .  S
Zr369       O554   2.369       .  S
Zr369      O1111   2.368   1_455  S
O370        H413   0.990       .  S
O371        H412   0.990       .  S
O371        H416   0.990       .  S
Zr372       O373   2.435       .  S
Zr372       O374   2.436       .  S
Zr372       O376   2.369       .  S
Zr372       O553   2.372       .  S
Zr372      O1114   2.370   1_455  S
O373        H414   0.990       .  S
O373        H417   0.990       .  S
O374        H407   0.990       .  S
O375       Zr550   2.372   1_554  S
O376       Zr547   2.369       .  S
O376      Zr1108   2.379   1_455  S
O376        H403   0.966       .  S
O377       Zr389   2.445       .  S
O377        C379   1.287       .  A
O378       Zr574   2.416       .  S
O380       Zr392   2.451       .  S
O380       C1094   1.291       .  A
O381       Zr573   2.419       .  S
O381        C382   1.286       .  A
C382       O1092   1.291   1_455  A
C382        C456   1.492       .  S
O383       Zr392   2.457       .  S
O383        C385   1.291       .  A
O384       Zr396   2.409       .  S
O386       Zr389   2.439       .  S
O386       C1100   1.287       .  A
O387       Zr395   2.423       .  S
O387        C388   1.285       .  A
C388       O1098   1.287   1_455  A
C388        C476   1.464       .  S
Zr389       O390   2.435       .  S
Zr389       O391   2.434       .  S
Zr389       O575   2.371       .  S
Zr389       O398   2.372       .  S
Zr389      O1113   2.375       .  S
O390        H410   0.990       .  S
O390        H415   0.990       .  S
O391        H411   0.990       .  S
Zr392       O393   2.434       .  S
Zr392       O394   2.435       .  S
Zr392       O576   2.373       .  S
Zr392       O397   2.371       .  S
Zr392      O1112   2.373       .  S
O393        H409   0.990       .  S
O394        H408   0.990       .  S
O394        H418   0.990       .  S
Zr395       O542   2.421   1_554  S
Zr395       O559   2.419   1_554  S
Zr395      O1110   2.382   1_455  S
Zr395       O578   2.386   1_554  S
Zr395       O401   2.383       .  S
Zr396       O545   2.424       .  S
Zr396       O556   2.416       .  S
Zr396      O1088   2.379       .  S
Zr396       O577   2.376       .  S
Zr396       O402   2.380       .  S
O397       Zr567   2.371       .  S
O397        H583   0.966       .  S
O398       Zr570   2.373   1_554  S
O398      Zr1107   2.382       .  S
O399      Zr1081   2.368       .  S
O399       Zr574   2.376       .  S
O400      Zr1104   2.373   1_455  S
O400       Zr573   2.386       .  S
O400        H404   0.966       .  S
O401      Zr1101   2.375   1_455  S
O401        H406   0.966       .  S
O402      Zr1084   2.370       .  S
H405        O575   0.966       .  S
C419        C486   1.473       .  S
C419        C420   1.397       .  A
C419        C424   1.400       .  A
C420        C421   1.401       .  A
C420        H425   1.083       .  S
C421        C479   1.488       .  S
C421        C422   1.407   1_455  A
C422        C423   1.413   1_655  A
C422        H426   1.079       .  S
C423        C432   1.507       .  S
C423        C424   1.412       .  A
C424        H427   1.080       .  S
C428        C469   1.491       .  S
C428        C429   1.405   1_655  A
C428        C433   1.405       .  A
C429        C430   1.404       .  A
C429        H434   1.082       .  S
C430        C459   1.491       .  S
C430        C431   1.405       .  A
C431        C432   1.411       .  A
C431        H435   1.080       .  S
C432        C433   1.410   1_455  A
C433        H436   1.079       .  S
C437        C516   1.491       .  S
C437        C438   1.401       .  A
C437        C442   1.405       .  A
C438        C439   1.396       .  A
C438        H443   1.083       .  S
C439        C526   1.472       .  S
C439        C440   1.402       .  A
C440        C441   1.414       .  A
C440        H444   1.079       .  S
C441        C450   1.512       .  S
C441        C442   1.415       .  A
C442        H445   1.078   1_565  S
C446        C496   1.478       .  S
C446        C447   1.398       .  A
C446        C451   1.400       .  A
C447        C448   1.399       .  A
C447        H452   1.084       .  S
C448        C509   1.477       .  S
C448        C449   1.405       .  A
C449        C450   1.415       .  A
C449        H453   1.079       .  S
C450        C451   1.414       .  A
C451        H454   1.078       .  S
C455       C1168   1.410       .  A
C455        C460   1.397       .  A
C455        F462   1.358       .  S
C456       C1167   1.410   1_455  A
C456        C457   1.413       .  A
C457        C458   1.402       .  A
C457        F464   1.358       .  S
C458        C459   1.407       .  A
C458        F463   1.358       .  S
C459       C1172   1.409   1_455  A
C460       C1171   1.409       .  A
C460        F461   1.358       .  S
C465       C1178   1.413       .  A
C465        C470   1.401       .  A
C465        F472   1.358       .  S
C466       C1074   1.490       .  S
C466       C1177   1.413       .  A
C466        C467   1.409   1_655  A
C467        C468   1.397       .  A
C467        F474   1.358       .  S
C468        C469   1.409   1_455  A
C468        F473   1.358       .  S
C469       C1182   1.407       .  A
C470       C1181   1.407       .  A
C470        F471   1.358       .  S
C475       C1188   1.401       .  A
C475        C480   1.399       .  A
C475        F482   1.358       .  S
C476       C1187   1.401   1_455  A
C476        C477   1.400       .  A
C477        C478   1.397       .  A
C477        F484   1.358       .  S
C478        C479   1.411       .  A
C478        F483   1.358       .  S
C479       C1192   1.411   1_455  A
C480       C1191   1.411       .  A
C480        F481   1.358       .  S
C485       C1198   1.403       .  A
C485        C490   1.398       .  A
C485        F492   1.358       .  S
C486       C1197   1.403   1_455  A
C486        C487   1.400       .  A
C487        C488   1.397       .  A
C487        F494   1.358       .  S
C488        C489   1.415       .  A
C488        F493   1.358       .  S
C489       C1080   1.487       .  S
C489       C1202   1.412   1_455  A
C490       C1201   1.412       .  A
C490        F491   1.358       .  S
C495        C496   1.400       .  A
C495        C500   1.399       .  A
C495        F502   1.358       .  S
C497        C498   1.398       .  A
C497        F504   1.358       .  S
C498        F503   1.358       .  S
C499        C500   1.417       .  A
C500        F501   1.358       .  S
C505        C510   1.400       .  A
C505        F512   1.358       .  S
C506        C507   1.406       .  A
C507        C508   1.399       .  A
C507        F514   1.358       .  S
C508        C509   1.405       .  A
C508        F513   1.358       .  S
C510        F511   1.358       .  S
C515        C516   1.413       .  A
C515        C520   1.397       .  A
C515        F522   1.358       .  S
C516        C517   1.412   1_565  A
C517        C518   1.399       .  A
C517        F524   1.357       .  S
C518        C519   1.401   1_545  A
C519        C520   1.399       .  A
C520        F521   1.358       .  S
C525        C530   1.398       .  A
C525        F532   1.358       .  S
C526        C527   1.399       .  A
C527        C528   1.399       .  A
C527        F534   1.358       .  S
C528        C529   1.414       .  A
C528        F533   1.358       .  S
C530        F531   1.358       .  S
O535       Zr547   2.426       .  S
O535        C537   1.285       .  A
O536       Zr573   2.434       .  S
C537        C707   1.484       .  S
O538       Zr550   2.449       .  S
O538       C1252   1.290   1_455  A
O539       Zr574   2.414   1_556  S
O539        C540   1.285       .  A
C540       O1250   1.290       .  A
C540       C1356   1.490       .  S
O541       Zr550   2.445       .  S
O541        C543   1.289       .  A
C543        C684   1.474       .  S
O544       Zr547   2.432       .  S
O544       C1258   1.286       .  A
O545        C546   1.287       .  A
C546       O1256   1.286       .  A
C546       C1379   1.487       .  S
Zr547       O548   2.433       .  S
Zr547       O549   2.436       .  S
Zr547       O553   2.371       .  S
Zr547      O1289   2.368   1_455  S
O548        H591   0.990       .  S
O549        H590   0.990       .  S
O549        H594   0.990       .  S
Zr550       O551   2.435       .  S
Zr550       O552   2.436       .  S
Zr550       O554   2.369   1_556  S
Zr550      O1292   2.370   1_455  S
O551        H592   0.990       .  S
O551        H595   0.990       .  S
O552        H585   0.990       .  S
O554      Zr1286   2.379   1_455  S
O554        H581   0.966       .  S
O555       Zr567   2.445       .  S
O555        C557   1.287       .  A
O558       Zr570   2.451       .  S
O558       C1272   1.291       .  A
O559        C560   1.286       .  A
C560       O1270   1.291   1_455  A
C560        C634   1.492       .  S
O561       Zr570   2.457       .  S
O561        C563   1.291       .  A
O562       Zr574   2.409   1_556  S
O564       Zr567   2.439       .  S
O564       C1278   1.287       .  A
O565       Zr573   2.423       .  S
O565        C566   1.285       .  A
C566       O1276   1.287   1_455  A
C566        C654   1.464       .  S
Zr567       O568   2.435       .  S
Zr567       O569   2.434       .  S
Zr567       O576   2.372       .  S
Zr567      O1291   2.375       .  S
O568        H588   0.990       .  S
O568        H593   0.990       .  S
O569        H589   0.990       .  S
Zr570       O571   2.434       .  S
Zr570       O572   2.435       .  S
Zr570       O575   2.371   1_556  S
Zr570      O1290   2.373       .  S
O571        H587   0.990       .  S
O572        H586   0.990       .  S
O572        H596   0.990       .  S
Zr573      O1288   2.382   1_455  S
Zr573       O579   2.383       .  S
Zr574      O1266   2.379       .  S
Zr574       O580   2.380   1_554  S
O576      Zr1285   2.382       .  S
O577      Zr1259   2.368       .  S
O578      Zr1282   2.373   1_455  S
O578        H582   0.966       .  S
O579      Zr1279   2.375   1_455  S
O579        H584   0.966       .  S
O580      Zr1262   2.370       .  S
C597        C664   1.473       .  S
C597        C598   1.397       .  A
C597        C602   1.400       .  A
C598        C599   1.401       .  A
C598        H603   1.083       .  S
C599        C657   1.488       .  S
C599        C600   1.407   1_455  A
C600        C601   1.413   1_655  A
C600        H604   1.079       .  S
C601        C610   1.507       .  S
C601        C602   1.412       .  A
C602        H605   1.080       .  S
C606        C647   1.491       .  S
C606        C607   1.405   1_655  A
C606        C611   1.405       .  A
C607        C608   1.404       .  A
C607        H612   1.082       .  S
C608        C637   1.491       .  S
C608        C609   1.405       .  A
C609        C610   1.411       .  A
C609        H613   1.080       .  S
C610        C611   1.410   1_455  A
C611        H614   1.079       .  S
C615        C694   1.491       .  S
C615        C616   1.401       .  A
C615        C620   1.405       .  A
C616        C617   1.396       .  A
C616        H621   1.083       .  S
C617        C704   1.472       .  S
C617        C618   1.402       .  A
C618        C619   1.414       .  A
C618        H622   1.079       .  S
C619        C628   1.512       .  S
C619        C620   1.415       .  A
C620        H623   1.078   1_565  S
C624        C674   1.478       .  S
C624        C625   1.398       .  A
C624        C629   1.400       .  A
C625        C626   1.399       .  A
C625        H630   1.084       .  S
C626        C687   1.477       .  S
C626        C627   1.405       .  A
C627        C628   1.415       .  A
C627        H631   1.079       .  S
C628        C629   1.414       .  A
C629        H632   1.078       .  S
C633       C1346   1.410       .  A
C633        C638   1.397       .  A
C633        F640   1.358       .  S
C634       C1345   1.410   1_455  A
C634        C635   1.413       .  A
C635        C636   1.401       .  A
C635        F642   1.358       .  S
C636        C637   1.407       .  A
C636        F641   1.358       .  S
C637       C1350   1.409   1_455  A
C638       C1349   1.409       .  A
C638        F639   1.358       .  S
C643       C1356   1.413       .  A
C643        C648   1.401       .  A
C643        F650   1.358       .  S
C644       C1252   1.490       .  S
C644       C1355   1.413       .  A
C644        C645   1.409   1_655  A
C645        C646   1.397       .  A
C645        F652   1.358       .  S
C646        C647   1.409   1_455  A
C646        F651   1.358       .  S
C647       C1360   1.407       .  A
C648       C1359   1.407       .  A
C648        F649   1.358       .  S
C653       C1366   1.401       .  A
C653        C658   1.399       .  A
C653        F660   1.358       .  S
C654       C1365   1.401   1_455  A
C654        C655   1.400       .  A
C655        C656   1.397       .  A
C655        F662   1.358       .  S
C656        C657   1.411       .  A
C656        F661   1.358       .  S
C657       C1370   1.411   1_455  A
C658       C1369   1.411       .  A
C658        F659   1.358       .  S
C663       C1376   1.403       .  A
C663        C668   1.398       .  A
C663        F670   1.358       .  S
C664       C1375   1.403   1_455  A
C664        C665   1.400       .  A
C665        C666   1.397       .  A
C665        F672   1.358       .  S
C666        C667   1.415       .  A
C666        F671   1.358       .  S
C667       C1258   1.487       .  S
C667       C1380   1.412   1_455  A
C668       C1379   1.412       .  A
C668        F669   1.358       .  S
C673        C674   1.400       .  A
C673        C678   1.399       .  A
C673        F680   1.358       .  S
C675        C676   1.398       .  A
C675        F682   1.358       .  S
C676        F681   1.358       .  S
C677        C678   1.417       .  A
C678        F679   1.358       .  S
C683        C688   1.400       .  A
C683        F690   1.358       .  S
C684        C685   1.406       .  A
C685        C686   1.399       .  A
C685        F692   1.358       .  S
C686        C687   1.405       .  A
C686        F691   1.358       .  S
C688        F689   1.358       .  S
C693        C694   1.413       .  A
C693        C698   1.398       .  A
C693        F700   1.358       .  S
C694        C695   1.412   1_565  A
C695        C696   1.399       .  A
C695        F702   1.357       .  S
C696        C697   1.401   1_545  A
C697        C698   1.399       .  A
C698        F699   1.358       .  S
C703        C708   1.398       .  A
C703        F710   1.358       .  S
C704        C705   1.399       .  A
C705        C706   1.399       .  A
C705        F712   1.358       .  S
C706        C707   1.414       .  A
C706        F711   1.358       .  S
C708        F709   1.358       .  S
O713       Zr725   2.426       .  S
O713        C715   1.285       .  A
O714       Zr751   2.434       .  S
O714       C1071   1.288   1_545  A
C715       O1070   1.288       .  A
C715        C885   1.484       .  S
O716       Zr728   2.449       .  S
O717       Zr752   2.414       .  S
O717        C718   1.285       .  A
O719       Zr728   2.445       .  S
O719        C721   1.289       .  A
O720       Zr929   2.421       .  S
O720       C1077   1.286   1_545  A
C721       O1076   1.286       .  A
C721        C862   1.474       .  S
O722       Zr725   2.432       .  S
O723       Zr930   2.424       .  S
O723        C724   1.287   1_655  A
Zr725       O726   2.433       .  S
Zr725       O727   2.436       .  S
Zr725       O731   2.371       .  S
Zr725       O910   2.369       .  S
Zr725      O1113   2.371       .  S
O726        H769   0.990       .  S
O727        H768   0.990       .  S
O727        H772   0.990       .  S
Zr728       O729   2.435       .  S
Zr728       O730   2.436       .  S
Zr728       O732   2.369       .  S
Zr728       O909   2.372       .  S
Zr728      O1112   2.371       .  S
O729        H770   0.990       .  S
O729        H773   0.990       .  S
O730        H763   0.990       .  S
O731       Zr906   2.372   1_554  S
O731      Zr1107   2.378       .  S
O732       Zr903   2.369       .  S
O732        H759   0.966       .  S
O733       Zr745   2.445       .  S
O733        C735   1.287   1_545  A
O734       Zr930   2.416       .  S
O734       C1091   1.284       .  A
C735       O1090   1.284       .  A
C735       C1231   1.464       .  S
O736       Zr748   2.451       .  S
O737       Zr929   2.419       .  S
O737        C738   1.286       .  A
C738        C812   1.492       .  S
O739       Zr748   2.457       .  S
O739        C741   1.291   1_545  A
O740       Zr752   2.409       .  S
O740       C1097   1.284       .  A
C741       O1096   1.284       .  A
C741       C1211   1.494       .  S
O742       Zr745   2.439       .  S
O743       Zr751   2.423       .  S
O743        C744   1.285       .  A
C744        C832   1.464       .  S
Zr745       O746   2.435       .  S
Zr745       O747   2.434       .  S
Zr745       O931   2.371       .  S
Zr745       O754   2.372       .  S
Zr745      O1111   2.374   1_545  S
O746        H766   0.990       .  S
O746        H771   0.990       .  S
O747        H767   0.990       .  S
Zr748       O749   2.434       .  S
Zr748       O750   2.435       .  S
Zr748       O932   2.373       .  S
Zr748       O753   2.371       .  S
Zr748      O1114   2.371   1_545  S
O749        H765   0.990       .  S
O750        H764   0.990       .  S
O750        H774   0.990       .  S
Zr751       O898   2.421   1_554  S
Zr751       O915   2.419   1_554  S
Zr751      O1087   2.378   1_545  S
Zr751       O934   2.386   1_554  S
Zr751       O757   2.383       .  S
Zr752       O901   2.424       .  S
Zr752       O912   2.416       .  S
Zr752      O1109   2.383       .  S
Zr752       O933   2.376       .  S
Zr752       O758   2.380       .  S
O753       Zr923   2.371       .  S
O753      Zr1108   2.383   1_545  S
O753        H939   0.966       .  S
O754       Zr926   2.373   1_554  S
O755      Zr1101   2.374       .  S
O755       Zr930   2.376       .  S
O756      Zr1084   2.371   1_545  S
O756       Zr929   2.386       .  S
O756        H760   0.966       .  S
O757      Zr1081   2.371   1_545  S
O757        H762   0.966       .  S
O758      Zr1104   2.371       .  S
H761        O931   0.966       .  S
C775        C842   1.473       .  S
C775        C776   1.397       .  A
C775        C780   1.400       .  A
C776        C777   1.401       .  A
C776        H781   1.083       .  S
C777        C835   1.488       .  S
C777        C778   1.407       .  A
C778        C779   1.413       .  A
C778        H782   1.079       .  S
C779        C788   1.507       .  S
C779        C780   1.412       .  A
C780        H783   1.080       .  S
C784        C825   1.491       .  S
C784        C785   1.405       .  A
C784        C789   1.405       .  A
C785        C786   1.404       .  A
C785        H790   1.082       .  S
C786        C815   1.491       .  S
C786        C787   1.405       .  A
C787        C788   1.411       .  A
C787        H791   1.080       .  S
C788        C789   1.410       .  A
C789        H792   1.079       .  S
C793        C872   1.491       .  S
C793        C794   1.401       .  A
C793        C798   1.405       .  A
C794        C795   1.396       .  A
C794        H799   1.083       .  S
C795        C882   1.472       .  S
C795        C796   1.402       .  A
C796        C797   1.414       .  A
C796        H800   1.079       .  S
C797        C806   1.512       .  S
C797        C798   1.415       .  A
C798        H801   1.078       .  S
C802        C852   1.478       .  S
C802        C803   1.398       .  A
C802        C807   1.400       .  A
C803        C804   1.399       .  A
C803        H808   1.084       .  S
C804        C865   1.477       .  S
C804        C805   1.405       .  A
C805        C806   1.415       .  A
C805        H809   1.079       .  S
C806        C807   1.414       .  A
C807        H810   1.078       .  S
C811        C816   1.397       .  A
C811        F818   1.358       .  S
C812        C813   1.413       .  A
C813        C814   1.402       .  A
C813        F820   1.358       .  S
C814        C815   1.407       .  A
C814        F819   1.358       .  S
C816        F817   1.358       .  S
C821        C826   1.401       .  A
C821        F828   1.358       .  S
C822        C823   1.409       .  A
C823        C824   1.397       .  A
C823        F830   1.358       .  S
C824        C825   1.409       .  A
C824        F829   1.358       .  S
C826        F827   1.358       .  S
C831        C836   1.399       .  A
C831        F838   1.358       .  S
C832        C833   1.400       .  A
C833        C834   1.397       .  A
C833        F840   1.358       .  S
C834        C835   1.411       .  A
C834        F839   1.358       .  S
C836        F837   1.358       .  S
C841        C846   1.398       .  A
C841        F848   1.358       .  S
C842        C843   1.400       .  A
C843        C844   1.397       .  A
C843        F850   1.358       .  S
C844        C845   1.415       .  A
C844        F849   1.358       .  S
C846        F847   1.358       .  S
C851        C852   1.400       .  A
C851        C856   1.399       .  A
C851        F858   1.358       .  S
C852       C1209   1.404       .  A
C853       C1208   1.404   1_545  A
C853        C854   1.398       .  A
C853        F860   1.358       .  S
C854       C1211   1.412   1_545  A
C854        F859   1.358       .  S
C855       C1097   1.494       .  S
C855       C1210   1.412       .  A
C855        C856   1.417       .  A
C856        F857   1.358       .  S
C861       C1218   1.406   1_545  A
C861        C866   1.400       .  A
C861        F868   1.358       .  S
C862       C1217   1.406       .  A
C862        C863   1.406       .  A
C863        C864   1.399       .  A
C863        F870   1.358       .  S
C864        C865   1.405       .  A
C864        F869   1.358       .  S
C865       C1222   1.404       .  A
C866       C1221   1.404   1_545  A
C866        F867   1.358       .  S
C871        C872   1.413       .  A
C871        C876   1.397       .  A
C871        F878   1.358       .  S
C872        C873   1.412       .  A
C873        C874   1.399       .  A
C873        F880   1.357       .  S
C874        C875   1.401       .  A
C874       F1235   1.358       .  S
C875       C1091   1.464       .  S
C875        C876   1.399       .  A
C876        F877   1.358       .  S
F879       C1230   1.358       .  S
C881       C1238   1.403   1_545  A
C881        C886   1.398       .  A
C881        F888   1.358       .  S
C882       C1237   1.403       .  A
C882        C883   1.399       .  A
C883        C884   1.399       .  A
C883        F890   1.358       .  S
C884        C885   1.414       .  A
C884        F889   1.358       .  S
C885       C1242   1.409       .  A
C886       C1241   1.409   1_545  A
C886        F887   1.358       .  S
O891       Zr903   2.426       .  S
O891        C893   1.285       .  A
O892       Zr929   2.434       .  S
O892       C1249   1.288   1_545  A
C893       O1248   1.288       .  A
C893       C1063   1.484       .  S
O894       Zr906   2.449       .  S
O895       Zr930   2.414   1_556  S
O895        C896   1.285       .  A
O897       Zr906   2.445       .  S
O897        C899   1.289       .  A
O898       C1255   1.286   1_545  A
C899       O1254   1.286       .  A
C899       C1040   1.474       .  S
O900       Zr903   2.432       .  S
O901        C902   1.287   1_655  A
Zr903       O904   2.433       .  S
Zr903       O905   2.436       .  S
Zr903       O909   2.371       .  S
Zr903      O1291   2.371       .  S
O904        H947   0.990       .  S
O905        H946   0.990       .  S
O905        H950   0.990       .  S
Zr906       O907   2.435       .  S
Zr906       O908   2.436       .  S
Zr906       O910   2.369   1_556  S
Zr906      O1290   2.371       .  S
O907        H948   0.990       .  S
O907        H951   0.990       .  S
O908        H941   0.990       .  S
O909      Zr1285   2.378       .  S
O910        H937   0.966       .  S
O911       Zr923   2.445       .  S
O911        C913   1.287   1_545  A
O912       C1269   1.284       .  A
C913       O1268   1.284       .  A
C913       C1409   1.464       .  S
O914       Zr926   2.451       .  S
O915        C916   1.286       .  A
C916        C990   1.492       .  S
O917       Zr926   2.457       .  S
O917        C919   1.291   1_545  A
O918       Zr930   2.409   1_556  S
O918       C1275   1.284       .  A
C919       O1274   1.284       .  A
C919       C1389   1.493       .  S
O920       Zr923   2.439       .  S
O921       Zr929   2.423       .  S
O921        C922   1.285       .  A
C922       C1010   1.464       .  S
Zr923       O924   2.435       .  S
Zr923       O925   2.434       .  S
Zr923       O932   2.372       .  S
Zr923      O1289   2.374   1_545  S
O924        H944   0.990       .  S
O924        H949   0.990       .  S
O925        H945   0.990       .  S
Zr926       O927   2.434       .  S
Zr926       O928   2.435       .  S
Zr926       O931   2.371   1_556  S
Zr926      O1292   2.371   1_545  S
O927        H943   0.990       .  S
O928        H942   0.990       .  S
O928        H952   0.990       .  S
Zr929      O1265   2.378   1_545  S
Zr929       O935   2.383       .  S
Zr930      O1287   2.383       .  S
Zr930       O936   2.380   1_554  S
O931      Zr1286   2.383   1_545  S
O933      Zr1279   2.374       .  S
O934      Zr1262   2.371   1_545  S
O934        H938   0.966       .  S
O935      Zr1259   2.371   1_545  S
O935        H940   0.966       .  S
O936      Zr1282   2.371       .  S
C953       C1020   1.473       .  S
C953        C954   1.397       .  A
C953        C958   1.400       .  A
C954        C955   1.401       .  A
C954        H959   1.083       .  S
C955       C1013   1.488       .  S
C955        C956   1.407       .  A
C956        C957   1.413       .  A
C956        H960   1.079       .  S
C957        C966   1.507       .  S
C957        C958   1.412       .  A
C958        H961   1.080       .  S
C962       C1003   1.491       .  S
C962        C963   1.405       .  A
C962        C967   1.405       .  A
C963        C964   1.404       .  A
C963        H968   1.082       .  S
C964        C993   1.491       .  S
C964        C965   1.405       .  A
C965        C966   1.411       .  A
C965        H969   1.080       .  S
C966        C967   1.410       .  A
C967        H970   1.079       .  S
C971       C1050   1.491       .  S
C971        C972   1.401       .  A
C971        C976   1.405       .  A
C972        C973   1.396       .  A
C972        H977   1.083       .  S
C973       C1060   1.472       .  S
C973        C974   1.402       .  A
C974        C975   1.414       .  A
C974        H978   1.079       .  S
C975        C984   1.512       .  S
C975        C976   1.415       .  A
C976        H979   1.078       .  S
C980       C1030   1.478       .  S
C980        C981   1.398       .  A
C980        C985   1.400       .  A
C981        C982   1.399       .  A
C981        H986   1.084       .  S
C982       C1043   1.477       .  S
C982        C983   1.405       .  A
C983        C984   1.415       .  A
C983        H987   1.079       .  S
C984        C985   1.414       .  A
C985        H988   1.078       .  S
C989        C994   1.397       .  A
C989        F996   1.358       .  S
C990        C991   1.413       .  A
C991        C992   1.401       .  A
C991        F998   1.358       .  S
C992        C993   1.407       .  A
C992        F997   1.358       .  S
C994        F995   1.358       .  S
C999       C1004   1.401       .  A
C999       F1006   1.358       .  S
C1000      C1001   1.409       .  A
C1001      C1002   1.397       .  A
C1001      F1008   1.358       .  S
C1002      C1003   1.409       .  A
C1002      F1007   1.358       .  S
C1004      F1005   1.358       .  S
C1009      C1014   1.399       .  A
C1009      F1016   1.358       .  S
C1010      C1011   1.400       .  A
C1011      C1012   1.397       .  A
C1011      F1018   1.358       .  S
C1012      C1013   1.411       .  A
C1012      F1017   1.358       .  S
C1014      F1015   1.358       .  S
C1019      C1024   1.398       .  A
C1019      F1026   1.358       .  S
C1020      C1021   1.400       .  A
C1021      C1022   1.397       .  A
C1021      F1028   1.358       .  S
C1022      C1023   1.415       .  A
C1022      F1027   1.358       .  S
C1024      F1025   1.358       .  S
C1029      C1030   1.400       .  A
C1029      C1034   1.399       .  A
C1029      F1036   1.358       .  S
C1030      C1387   1.404       .  A
C1031      C1386   1.404   1_545  A
C1031      C1032   1.398       .  A
C1031      F1038   1.358       .  S
C1032      C1389   1.412   1_545  A
C1032      F1037   1.358       .  S
C1033      C1275   1.493       .  S
C1033      C1388   1.412       .  A
C1033      C1034   1.417       .  A
C1034      F1035   1.358       .  S
C1039      C1396   1.406   1_545  A
C1039      C1044   1.400       .  A
C1039      F1046   1.358       .  S
C1040      C1395   1.406       .  A
C1040      C1041   1.406       .  A
C1041      C1042   1.399       .  A
C1041      F1048   1.358       .  S
C1042      C1043   1.405       .  A
C1042      F1047   1.358       .  S
C1043      C1400   1.404       .  A
C1044      C1399   1.404   1_545  A
C1044      F1045   1.358       .  S
C1049      C1050   1.413       .  A
C1049      C1054   1.398       .  A
C1049      F1056   1.358       .  S
C1050      C1051   1.412       .  A
C1051      C1052   1.399       .  A
C1051      F1058   1.357       .  S
C1052      C1053   1.401       .  A
C1052      F1413   1.358       .  S
C1053      C1269   1.464       .  S
C1053      C1054   1.399       .  A
C1054      F1055   1.358       .  S
F1057      C1408   1.358       .  S
C1059      C1416   1.403   1_545  A
C1059      C1064   1.398       .  A
C1059      F1066   1.358       .  S
C1060      C1415   1.403       .  A
C1060      C1061   1.399       .  A
C1061      C1062   1.399       .  A
C1061      F1068   1.358       .  S
C1062      C1063   1.414       .  A
C1062      F1067   1.358       .  S
C1063      C1420   1.409       .  A
C1064      C1419   1.409   1_545  A
C1064      F1065   1.358       .  S
O1069     Zr1081   2.426       .  S
O1069      C1071   1.285       .  A
O1070     Zr1107   2.434       .  S
C1071      C1241   1.484       .  S
O1072     Zr1084   2.449       .  S
O1073     Zr1108   2.414       .  S
O1073      C1074   1.285       .  A
O1075     Zr1084   2.445       .  S
O1075      C1077   1.289       .  A
O1076     Zr1285   2.421       .  S
C1077      C1218   1.474       .  S
O1078     Zr1081   2.432       .  S
O1079     Zr1286   2.424       .  S
O1079      C1080   1.287   1_655  A
Zr1081     O1082   2.433       .  S
Zr1081     O1083   2.436       .  S
Zr1081     O1087   2.371       .  S
Zr1081     O1266   2.369       .  S
O1082      H1125   0.990       .  S
O1083      H1124   0.990       .  S
O1083      H1128   0.990       .  S
Zr1084     O1085   2.435       .  S
Zr1084     O1086   2.436       .  S
Zr1084     O1088   2.369       .  S
Zr1084     O1265   2.372       .  S
O1085      H1126   0.990       .  S
O1085      H1129   0.990       .  S
O1086      H1119   0.990       .  S
O1087     Zr1262   2.372   1_554  S
O1088     Zr1259   2.369       .  S
O1088      H1115   0.966       .  S
O1089     Zr1101   2.445       .  S
O1089      C1091   1.287       .  A
O1090     Zr1286   2.416       .  S
O1092     Zr1104   2.451       .  S
O1093     Zr1285   2.419       .  S
O1093      C1094   1.286       .  A
C1094      C1168   1.492       .  S
O1095     Zr1104   2.457       .  S
O1095      C1097   1.291       .  A
O1096     Zr1108   2.409       .  S
O1098     Zr1101   2.439       .  S
O1099     Zr1107   2.423       .  S
O1099      C1100   1.285       .  A
C1100      C1188   1.464       .  S
Zr1101     O1102   2.435       .  S
Zr1101     O1103   2.434       .  S
Zr1101     O1287   2.371       .  S
Zr1101     O1110   2.372       .  S
O1102      H1122   0.990       .  S
O1102      H1127   0.990       .  S
O1103      H1123   0.990       .  S
Zr1104     O1105   2.434       .  S
Zr1104     O1106   2.435       .  S
Zr1104     O1288   2.373       .  S
Zr1104     O1109   2.371       .  S
O1105      H1121   0.990       .  S
O1106      H1120   0.990       .  S
O1106      H1130   0.990       .  S
Zr1107     O1254   2.421   1_554  S
Zr1107     O1271   2.419   1_554  S
Zr1107     O1290   2.386   1_554  S
Zr1107     O1113   2.383       .  S
Zr1108     O1257   2.424       .  S
Zr1108     O1268   2.416       .  S
Zr1108     O1289   2.376       .  S
Zr1108     O1114   2.380       .  S
O1109     Zr1279   2.371       .  S
O1109      H1295   0.966       .  S
O1110     Zr1282   2.373   1_554  S
O1111     Zr1286   2.376       .  S
O1112     Zr1285   2.386       .  S
O1112      H1116   0.966       .  S
O1113      H1118   0.966       .  S
H1117      O1287   0.966       .  S
C1131      C1198   1.473       .  S
C1131      C1132   1.397       .  A
C1131      C1136   1.400       .  A
C1132      C1133   1.401       .  A
C1132      H1137   1.083       .  S
C1133      C1191   1.488       .  S
C1133      C1134   1.407       .  A
C1134      C1135   1.413       .  A
C1134      H1138   1.079       .  S
C1135      C1144   1.507       .  S
C1135      C1136   1.412       .  A
C1136      H1139   1.080       .  S
C1140      C1181   1.491       .  S
C1140      C1141   1.405       .  A
C1140      C1145   1.405       .  A
C1141      C1142   1.404       .  A
C1141      H1146   1.082       .  S
C1142      C1171   1.491       .  S
C1142      C1143   1.405       .  A
C1143      C1144   1.411       .  A
C1143      H1147   1.080       .  S
C1144      C1145   1.410       .  A
C1145      H1148   1.079       .  S
C1149      C1228   1.491       .  S
C1149      C1150   1.401       .  A
C1149      C1154   1.405       .  A
C1150      C1151   1.396       .  A
C1150      H1155   1.083       .  S
C1151      C1238   1.472       .  S
C1151      C1152   1.402       .  A
C1152      C1153   1.414       .  A
C1152      H1156   1.079       .  S
C1153      C1162   1.512       .  S
C1153      C1154   1.415       .  A
C1154      H1157   1.078   1_565  S
C1158      C1208   1.478       .  S
C1158      C1159   1.398       .  A
C1158      C1163   1.400       .  A
C1159      C1160   1.399       .  A
C1159      H1164   1.084       .  S
C1160      C1221   1.477       .  S
C1160      C1161   1.405       .  A
C1161      C1162   1.415       .  A
C1161      H1165   1.079       .  S
C1162      C1163   1.414       .  A
C1163      H1166   1.078       .  S
C1167      C1172   1.397       .  A
C1167      F1174   1.358       .  S
C1168      C1169   1.413       .  A
C1169      C1170   1.402       .  A
C1169      F1176   1.358       .  S
C1170      C1171   1.407       .  A
C1170      F1175   1.358       .  S
C1172      F1173   1.358       .  S
C1177      C1182   1.401       .  A
C1177      F1184   1.358       .  S
C1178      C1179   1.409       .  A
C1179      C1180   1.397       .  A
C1179      F1186   1.358       .  S
C1180      C1181   1.409       .  A
C1180      F1185   1.358       .  S
C1182      F1183   1.358       .  S
C1187      C1192   1.399       .  A
C1187      F1194   1.358       .  S
C1188      C1189   1.400       .  A
C1189      C1190   1.397       .  A
C1189      F1196   1.358       .  S
C1190      C1191   1.411       .  A
C1190      F1195   1.358       .  S
C1192      F1193   1.358       .  S
C1197      C1202   1.398       .  A
C1197      F1204   1.358       .  S
C1198      C1199   1.400       .  A
C1199      C1200   1.397       .  A
C1199      F1206   1.358       .  S
C1200      C1201   1.415       .  A
C1200      F1205   1.358       .  S
C1202      F1203   1.358       .  S
C1207      C1208   1.400       .  A
C1207      C1212   1.399       .  A
C1207      F1214   1.358       .  S
C1209      C1210   1.398       .  A
C1209      F1216   1.358       .  S
C1210      F1215   1.358       .  S
C1211      C1212   1.417       .  A
C1212      F1213   1.358       .  S
C1217      C1222   1.400       .  A
C1217      F1224   1.358       .  S
C1218      C1219   1.406       .  A
C1219      C1220   1.399       .  A
C1219      F1226   1.358       .  S
C1220      C1221   1.405       .  A
C1220      F1225   1.358       .  S
C1222      F1223   1.358       .  S
C1227      C1228   1.413       .  A
C1227      C1232   1.397       .  A
C1227      F1234   1.358       .  S
C1228      C1229   1.412   1_565  A
C1229      C1230   1.399       .  A
C1229      F1236   1.357       .  S
C1230      C1231   1.401   1_545  A
C1231      C1232   1.399       .  A
C1232      F1233   1.358       .  S
C1237      C1242   1.398       .  A
C1237      F1244   1.358       .  S
C1238      C1239   1.399       .  A
C1239      C1240   1.399       .  A
C1239      F1246   1.358       .  S
C1240      C1241   1.414       .  A
C1240      F1245   1.358       .  S
C1242      F1243   1.358       .  S
O1247     Zr1259   2.426       .  S
O1247      C1249   1.285       .  A
O1248     Zr1285   2.434       .  S
C1249      C1419   1.484       .  S
O1250     Zr1262   2.449       .  S
O1251     Zr1286   2.414   1_556  S
O1251      C1252   1.285       .  A
O1253     Zr1262   2.445       .  S
O1253      C1255   1.289       .  A
C1255      C1396   1.474       .  S
O1256     Zr1259   2.432       .  S
O1257      C1258   1.287   1_655  A
Zr1259     O1260   2.433       .  S
Zr1259     O1261   2.436       .  S
Zr1259     O1265   2.371       .  S
O1260      H1303   0.990       .  S
O1261      H1302   0.990       .  S
O1261      H1306   0.990       .  S
Zr1262     O1263   2.435       .  S
Zr1262     O1264   2.436       .  S
Zr1262     O1266   2.369   1_556  S
O1263      H1304   0.990       .  S
O1263      H1307   0.990       .  S
O1264      H1297   0.990       .  S
O1266      H1293   0.966       .  S
O1267     Zr1279   2.445       .  S
O1267      C1269   1.287       .  A
O1270     Zr1282   2.451       .  S
O1271      C1272   1.286       .  A
C1272      C1346   1.492       .  S
O1273     Zr1282   2.457       .  S
O1273      C1275   1.291       .  A
O1274     Zr1286   2.409   1_556  S
O1276     Zr1279   2.439       .  S
O1277     Zr1285   2.423       .  S
O1277      C1278   1.285       .  A
C1278      C1366   1.464       .  S
Zr1279     O1280   2.435       .  S
Zr1279     O1281   2.434       .  S
Zr1279     O1288   2.372       .  S
O1280      H1300   0.990       .  S
O1280      H1305   0.990       .  S
O1281      H1301   0.990       .  S
Zr1282     O1283   2.434       .  S
Zr1282     O1284   2.435       .  S
Zr1282     O1287   2.371   1_556  S
O1283      H1299   0.990       .  S
O1284      H1298   0.990       .  S
O1284      H1308   0.990       .  S
Zr1285     O1291   2.383       .  S
Zr1286     O1292   2.380   1_554  S
O1290      H1294   0.966       .  S
O1291      H1296   0.966       .  S
C1309      C1376   1.473       .  S
C1309      C1310   1.397       .  A
C1309      C1314   1.400       .  A
C1310      C1311   1.401       .  A
C1310      H1315   1.083       .  S
C1311      C1369   1.488       .  S
C1311      C1312   1.407       .  A
C1312      C1313   1.413       .  A
C1312      H1316   1.079       .  S
C1313      C1322   1.507       .  S
C1313      C1314   1.412       .  A
C1314      H1317   1.080       .  S
C1318      C1359   1.491       .  S
C1318      C1319   1.405       .  A
C1318      C1323   1.405       .  A
C1319      C1320   1.404       .  A
C1319      H1324   1.082       .  S
C1320      C1349   1.491       .  S
C1320      C1321   1.405       .  A
C1321      C1322   1.411       .  A
C1321      H1325   1.080       .  S
C1322      C1323   1.410       .  A
C1323      H1326   1.079       .  S
C1327      C1406   1.491       .  S
C1327      C1328   1.401       .  A
C1327      C1332   1.405       .  A
C1328      C1329   1.396       .  A
C1328      H1333   1.083       .  S
C1329      C1416   1.472       .  S
C1329      C1330   1.402       .  A
C1330      C1331   1.414       .  A
C1330      H1334   1.079       .  S
C1331      C1340   1.512       .  S
C1331      C1332   1.415       .  A
C1332      H1335   1.078   1_565  S
C1336      C1386   1.478       .  S
C1336      C1337   1.398       .  A
C1336      C1341   1.400       .  A
C1337      C1338   1.399       .  A
C1337      H1342   1.084       .  S
C1338      C1399   1.477       .  S
C1338      C1339   1.405       .  A
C1339      C1340   1.415       .  A
C1339      H1343   1.079       .  S
C1340      C1341   1.414       .  A
C1341      H1344   1.078       .  S
C1345      C1350   1.397       .  A
C1345      F1352   1.358       .  S
C1346      C1347   1.413       .  A
C1347      C1348   1.401       .  A
C1347      F1354   1.358       .  S
C1348      C1349   1.407       .  A
C1348      F1353   1.358       .  S
C1350      F1351   1.358       .  S
C1355      C1360   1.401       .  A
C1355      F1362   1.358       .  S
C1356      C1357   1.409       .  A
C1357      C1358   1.397       .  A
C1357      F1364   1.358       .  S
C1358      C1359   1.409       .  A
C1358      F1363   1.358       .  S
C1360      F1361   1.358       .  S
C1365      C1370   1.399       .  A
C1365      F1372   1.358       .  S
C1366      C1367   1.400       .  A
C1367      C1368   1.397       .  A
C1367      F1374   1.358       .  S
C1368      C1369   1.411       .  A
C1368      F1373   1.358       .  S
C1370      F1371   1.358       .  S
C1375      C1380   1.398       .  A
C1375      F1382   1.358       .  S
C1376      C1377   1.400       .  A
C1377      C1378   1.397       .  A
C1377      F1384   1.358       .  S
C1378      C1379   1.415       .  A
C1378      F1383   1.358       .  S
C1380      F1381   1.358       .  S
C1385      C1386   1.400       .  A
C1385      C1390   1.399       .  A
C1385      F1392   1.358       .  S
C1387      C1388   1.398       .  A
C1387      F1394   1.358       .  S
C1388      F1393   1.358       .  S
C1389      C1390   1.417       .  A
C1390      F1391   1.358       .  S
C1395      C1400   1.400       .  A
C1395      F1402   1.358       .  S
C1396      C1397   1.406       .  A
C1397      C1398   1.399       .  A
C1397      F1404   1.358       .  S
C1398      C1399   1.405       .  A
C1398      F1403   1.358       .  S
C1400      F1401   1.358       .  S
C1405      C1406   1.413       .  A
C1405      C1410   1.398       .  A
C1405      F1412   1.358       .  S
C1406      C1407   1.412   1_565  A
C1407      C1408   1.399       .  A
C1407      F1414   1.357       .  S
C1408      C1409   1.401   1_545  A
C1409      C1410   1.399       .  A
C1410      F1411   1.358       .  S
C1415      C1420   1.398       .  A
C1415      F1422   1.358       .  S
C1416      C1417   1.399       .  A
C1417      C1418   1.399       .  A
C1417      F1424   1.358       .  S
C1418      C1419   1.414       .  A
C1418      F1423   1.358       .  S
C1420      F1421   1.358       .  S
