geometry optimzed in LAMMPS
_audit_creation_date              2020-11-30 
_audit_creation_method            'lammps2cif' 
_symmetry_space_group_name_H-M    'P1' 
_symmetry_Int_Tables_number       1 
_symmetry_cell_setting            triclinic 
loop_ 
_symmetry_equiv_pos_as_xyz 
  x,y,z 
_cell_length_a                    42.04138951900851 
_cell_length_b                    42.03891946786496 
_cell_length_c                    40.124216696773345 
_cell_angle_alpha                 90.2553193673041 
_cell_angle_beta                  90.23484097968594 
_cell_angle_gamma                 69.43859258395182 
loop_ 
_atom_site_label 
_atom_site_type_symbol 
_atom_site_fract_x 
_atom_site_fract_y 
_atom_site_fract_z 
_atom_site_charge 
O1          O  0.09105448  0.46963354  0.06372773    -0.73740
O2          O  0.08897380  0.01729494  0.03527676    -0.52650
C3          C  0.10273738  0.49307926  0.05599528     0.79990
O4          O  0.02434726  0.40526876  0.43608719    -0.58340
O5          O  0.47633270  0.40850150  0.46421845    -0.51370
C6          C  0.50042960  0.39409068  0.44354996     0.72000
O7          O  0.09032302  0.46911266  0.43672031    -0.72740
O8          O  0.08897391  0.01691063  0.46426188    -0.53470
C9          C  0.10261414  0.49236330  0.44363327     0.78000
O10         O  0.02330772  0.40746900  0.06569016    -0.58050
O11         O  0.47659564  0.40908233  0.03596295    -0.51160
C12         C  0.49987889  0.39564531  0.05783283     0.74600
Zr13       Zr  0.04214242  0.45381064  0.04978635     2.54710
O14         O  0.09200137  0.40212513  0.05141697    -0.78610
O15         O  0.03919636  0.45790543  0.11033977    -0.92030
Zr16       Zr  0.04184678  0.45316032  0.45040706     2.64680
O17         O  0.09316223  0.40293382  0.44722418    -0.96980
O18         O  0.03702508  0.45696293  0.38992887    -0.79040
O19         O  0.06168738  0.47086754  0.50002406    -0.82400
O20         O  0.02450075  0.43407183  0.50014715    -2.17110
O21         O  0.41333130  0.01726961  0.06614522    -0.65790
O22         O  0.41578718  0.47065284  0.03580528    -0.50360
C23         C  0.40213904  0.99332063  0.05805162     0.72980
O24         O  0.47702858  0.08511729  0.43726136    -0.58700
O25         O  0.02725659  0.07941174  0.46316459    -0.50680
C26         C  0.00241156  0.09469158  0.44352110     0.74780
O27         O  0.41273959  0.01826001  0.43388985    -0.70090
O28         O  0.41690650  0.46956164  0.46166070    -0.48770
C29         C  0.40280759  0.99326650  0.44056058     0.76160
O30         O  0.47693532  0.08538484  0.06249229    -0.65420
O31         O  0.02693344  0.07984818  0.03650584    -0.52620
C32         C  0.00211517  0.09514872  0.05612665     0.74550
Zr33       Zr  0.45962739  0.03686015  0.04937560     2.77540
O34         O  0.40831863  0.08726246  0.04931721    -0.96170
O35         O  0.46325619  0.03606165  0.10994699    -0.76990
Zr36       Zr  0.45968684  0.03675314  0.45046850     2.70070
O37         O  0.40826543  0.08696770  0.45043208    -0.78240
O38         O  0.46351175  0.03536870  0.38992780    -0.97330
Zr39       Zr  0.03910968  0.03115879  0.49986886     2.21500
Zr40       Zr  0.46422465  0.45804278  0.99972689     2.11130
O41         O  0.44031695  0.01861288  0.99978732    -2.46010
O42         O  0.47859204  0.05548613  0.00001033    -0.78030
O43         O  0.48197945  0.47658193  0.05029272    -0.70230
O44         O  0.01998316  0.01339757  0.44950103    -2.31190
O45         O  0.02002754  0.01399188  0.05034069    -2.27390
O46         O  0.48178109  0.47637478  0.44934868    -0.71990
H47         H  0.03239788  0.40954880  0.50032259     0.80010
H48         H  0.02847233  0.02160978  0.43027110     0.81090
H49         H  0.41579550  0.02637519  0.99968957     0.83320
H50         H  0.02853930  0.02246789  0.06953597     0.80930
H51         H  0.04306342  0.47697486  0.38404726     0.43960
H52         H  0.46437862  0.01227123  0.38366061     0.42930
H53         H  0.40911866  0.09847564  0.47182671     0.42610
H54         H  0.39202945  0.08119379  0.03504437     0.40540
H55         H  0.46855149  0.01192160  0.11594286     0.43680
H56         H  0.04286262  0.47935554  0.11577808     0.38460
H57         H  0.10228630  0.40075930  0.02905669     0.44580
H58         H  0.08926478  0.38655189  0.46289182     0.40990
H59         H  0.39913341  0.08843152  0.07215634     0.45910
H60         H  0.06014418  0.43981561  0.11810259     0.44630
H61         H  0.09237379  0.39325213  0.42482521     0.44770
H62         H  0.44085860  0.05056461  0.38231539     0.45130
C63         C  0.00234475  0.27354638  0.12588999     0.04680
C64         C  0.00138606  0.24508995  0.10813343    -0.11470
C65         C  0.00383303  0.21517438  0.12503395     0.02180
C66         C  0.00647420  0.21416980  0.15992760    -0.10000
C67         C  0.00657402  0.24279313  0.17805818     0.04670
C68         C  0.00491000  0.27230220  0.16077403    -0.09420
H69         H  0.99966567  0.24593159  0.08116717     0.10270
H70         H  0.00822338  0.19109803  0.17298842     0.07790
H71         H  0.00489727  0.29460057  0.17444895     0.07640
C72         C  0.00437885  0.27195162  0.37515561     0.04680
C73         C  0.00401506  0.24325188  0.39248216    -0.11470
C74         C  0.00584889  0.21368191  0.37508356     0.02180
C75         C  0.00790788  0.21306763  0.34016563    -0.10000
C76         C  0.00763604  0.24195912  0.32249318     0.04670
C77         C  0.00605867  0.27133407  0.34026646    -0.09420
H78         H  0.00261789  0.24383788  0.41946375     0.10270
H79         H  0.00935460  0.19016736  0.32674926     0.07790
H80         H  0.00560478  0.29389851  0.32700905     0.07640
C81         C  0.28469910  0.48269605  0.12616127     0.04680
C82         C  0.25527470  0.48452527  0.10835816    -0.11470
C83         C  0.22712676  0.48128851  0.12482971     0.02180
C84         C  0.22903155  0.47579405  0.15942021    -0.10000
C85         C  0.25780299  0.47512707  0.17764573     0.04670
C86         C  0.28574211  0.47817570  0.16081646    -0.09420
H87         H  0.25403251  0.48951304  0.08182782     0.10270
H88         H  0.20780941  0.47264662  0.17244344     0.07790
H89         H  0.30803307  0.47773913  0.17474933     0.07640
C90         C  0.28590656  0.48135531  0.37379640     0.04680
C91         C  0.25681600  0.48255081  0.39163899    -0.11470
C92         C  0.22750730  0.48221493  0.37482777     0.02180
C93         C  0.22802652  0.48013556  0.33981418    -0.10000
C94         C  0.25728008  0.47778761  0.32177214     0.04670
C95         C  0.28608183  0.47854290  0.33894304    -0.09420
H96         H  0.25722676  0.48350165  0.41860921     0.10270
H97         H  0.20547938  0.48060573  0.32637834     0.07790
H98         H  0.30827159  0.47818386  0.32506580     0.07640
C99         C  0.23094800  0.49897630  0.23186769     0.25150
C100        C  0.25733309  0.47442754  0.21452078    -0.22960
C101        C  0.28356243  0.45046730  0.23261736     0.20050
C102        C  0.28343978  0.45123839  0.26753114     0.25090
C103        C  0.25718282  0.47612781  0.28484713    -0.22910
C104        C  0.23091796  0.49989034  0.26663046     0.19990
F105        F  0.20581019  0.02489710  0.28247259    -0.12870
F106        F  0.20579222  0.02302237  0.21506961    -0.15230
F107        F  0.30867582  0.42737558  0.28443094    -0.15230
F108        F  0.30900826  0.42607495  0.21648772    -0.12870
C109        C  0.03087352  0.25271644  0.23287424     0.25150
C110        C  0.00741223  0.24214490  0.21504498    -0.22960
C111        C  0.48424553  0.23138163  0.23280589     0.20050
C112        C  0.48449078  0.23119070  0.26763800     0.25090
C113        C  0.00790466  0.24176187  0.28550154    -0.22910
C114        C  0.03110905  0.25253717  0.26778085     0.19990
F115        F  0.05450907  0.26220943  0.28426560    -0.12870
F116        F  0.05406836  0.26253429  0.21648705    -0.15230
F117        F  0.46102829  0.22170503  0.28394378    -0.15230
F118        F  0.46054933  0.22207504  0.21641867    -0.12870
C119        C  0.47579686  0.15607007  0.42882448     0.25150
C120        C  0.00338220  0.12529510  0.42654766    -0.22960
C121        C  0.03206656  0.12388172  0.40789264     0.20050
C122        C  0.03283091  0.15266557  0.39106939     0.25090
C123        C  0.00525374  0.18345294  0.39330944    -0.22910
C124        C  0.47689368  0.18508274  0.41262315     0.19990
F125        F  0.45000899  0.21461554  0.41520488    -0.12870
F126        F  0.44811899  0.15813843  0.44725489    -0.15230
F127        F  0.06063043  0.15063329  0.37285194    -0.15230
F128        F  0.05896896  0.09435725  0.40529074    -0.12870
C129        C  0.47188257  0.32791343  0.40096944     0.25150
C130        C  0.00317407  0.30266610  0.39355797    -0.22960
C131        C  0.03341077  0.30682489  0.40368895     0.20050
C132        C  0.03246751  0.33644130  0.42026018     0.25090
C133        C  0.00114812  0.36222583  0.42726275    -0.22910
C134        C  0.47081764  0.35732482  0.41810336     0.19990
F135        F  0.44018044  0.38126313  0.42504435    -0.12870
F136        F  0.44241483  0.32413544  0.39132772    -0.15230
F137        F  0.06217377  0.33955986  0.43012088    -0.15230
F138        F  0.06384809  0.28216508  0.39743754    -0.12870
C139        C  0.03091438  0.12489900  0.09259224     0.25150
C140        C  0.00280308  0.12606690  0.07295353    -0.22960
C141        C  0.47540801  0.15686389  0.06969020     0.20050
C142        C  0.47607496  0.18614046  0.08598969     0.25090
C143        C  0.00380894  0.18476851  0.10637694    -0.22910
C144        C  0.03126031  0.15394142  0.10948277     0.19990
F145        F  0.05853052  0.15208048  0.12867910    -0.12870
F146        F  0.05761938  0.09536337  0.09611939    -0.15230
F147        F  0.44930168  0.21563613  0.08254478    -0.15230
F148        F  0.44829057  0.15865091  0.05030056    -0.12870
C149        C  0.02981217  0.31476780  0.10947123     0.25150
C150        C  0.00159184  0.30441539  0.10803564    -0.22960
C151        C  0.47279573  0.32373567  0.08979889     0.20050
C152        C  0.47199344  0.35344258  0.07357231     0.25090
C153        C  0.00028837  0.36415476  0.07501961    -0.22910
C154        C  0.02934883  0.34413045  0.09303436     0.19990
F155        F  0.05774389  0.35246661  0.09444943    -0.12870
F156        F  0.05820204  0.29597077  0.12637595    -0.15230
F157        F  0.44326024  0.37188751  0.05698217    -0.15230
F158        F  0.44512388  0.31420975  0.08837012    -0.12870
C159        C  0.34841868  0.46027162  0.38555692     0.25150
C160        C  0.31582998  0.48428577  0.39129196    -0.22960
C161        C  0.31219943  0.01193861  0.41274701     0.20050
C162        C  0.34070300  0.01543210  0.42821730     0.25090
C163        C  0.37308887  0.49121756  0.42263658    -0.22910
C164        C  0.37679962  0.46377768  0.40111602     0.19990
F165        F  0.40808750  0.44073643  0.39471891    -0.12870
F166        F  0.35269456  0.43315223  0.36526219    -0.15230
F167        F  0.33666514  0.04206022  0.44910310    -0.15230
F168        F  0.28114476  0.03591143  0.41816923    -0.12870
C169        C  0.15410756  0.00974273  0.43678266     0.25150
C170        C  0.13470392  0.49009319  0.42639349    -0.22960
C171        C  0.14672737  0.46737934  0.39939982     0.20050
C172        C  0.17722037  0.46413075  0.38365907     0.25090
C173        C  0.19616313  0.48434429  0.39341620    -0.22910
C174        C  0.18425263  0.00715864  0.42027054     0.19990
F175        F  0.20124240  0.02773019  0.43011819    -0.12870
F176        F  0.14414138  0.03144879  0.46302451    -0.15230
F177        F  0.18842679  0.44056762  0.35905879    -0.15230
F178        F  0.12895886  0.44819383  0.38771576    -0.12870
C179        C  0.35555095  0.01402995  0.10130987     0.25150
C180        C  0.37149182  0.49130098  0.07532986    -0.22960
C181        C  0.35783215  0.46613574  0.06610558     0.20050
C182        C  0.32956798  0.46366770  0.08250607     0.25090
C183        C  0.31421083  0.48602310  0.10854951    -0.22910
C184        C  0.32731399  0.01127427  0.11776782     0.19990
F185        F  0.31235377  0.03370135  0.14242818    -0.12870
F186        F  0.36714723  0.03897417  0.11101248    -0.15230
F187        F  0.31764801  0.43874784  0.07342220    -0.15230
F188        F  0.37171822  0.44355039  0.04124325    -0.12870
C189        C  0.16579210  0.47247903  0.05840999     0.25150
C190        C  0.13438093  0.49178808  0.07234431    -0.22960
C191        C  0.13332017  0.00808453  0.10303221     0.20050
C192        C  0.16342691  0.50516142  0.11976805     0.25090
C193        C  0.19519690  0.48515875  0.10636666    -0.22910
C194        C  0.19601658  0.46897135  0.07533934     0.19990
F195        F  0.22592882  0.44880389  0.06190935    -0.12870
F196        F  0.16708407  0.45645770  0.02870896    -0.15230
F197        F  0.16143449  0.02232120  0.14888954    -0.15230
F198        F  0.10303555  0.02652196  0.11697319    -0.12870
O199        O  0.09105448  0.46963354  0.56372772    -0.73740
O200        O  0.08897381  0.01729495  0.53527676    -0.52650
C201        C  0.10273738  0.49307927  0.55599527     0.79990
O202        O  0.02434726  0.40526875  0.93608720    -0.58340
O203        O  0.47633271  0.40850150  0.96421845    -0.51370
C204        C  0.50042960  0.39409067  0.94354996     0.72000
O205        O  0.09032303  0.46911265  0.93672031    -0.72740
O206        O  0.08897391  0.01691062  0.96426188    -0.53470
C207        C  0.10261415  0.49236329  0.94363327     0.78000
O208        O  0.02330772  0.40746900  0.56569017    -0.58050
O209        O  0.47659564  0.40908233  0.53596295    -0.51160
C210        C  0.49987888  0.39564532  0.55783283     0.74600
Zr211      Zr  0.04214242  0.45381064  0.54978635     2.54710
O212        O  0.09200137  0.40212513  0.55141696    -0.78610
O213        O  0.03919637  0.45790543  0.61033976    -0.92030
Zr214      Zr  0.04184679  0.45316031  0.95040706     2.64680
O215        O  0.09316223  0.40293381  0.94722418    -0.96980
O216        O  0.03702509  0.45696292  0.88992887    -0.79040
O217        O  0.06168738  0.47086753  0.00002407    -0.82400
O218        O  0.02450075  0.43407183  0.00014716    -2.17110
O219        O  0.41333130  0.01726962  0.56614521    -0.65790
O220        O  0.41578718  0.47065284  0.53580528    -0.50360
C221        C  0.40213905  0.99332064  0.55805162     0.72980
O222        O  0.47702857  0.08511729  0.93726136    -0.58700
O223        O  0.02725659  0.07941173  0.96316459    -0.50680
C224        C  0.00241156  0.09469157  0.94352109     0.74780
O225        O  0.41273958  0.01826001  0.93388985    -0.70090
O226        O  0.41690649  0.46956164  0.96166070    -0.48770
C227        C  0.40280758  0.99326649  0.94056058     0.76160
O228        O  0.47693533  0.08538484  0.56249229    -0.65420
O229        O  0.02693344  0.07984819  0.53650585    -0.52620
C230        C  0.00211516  0.09514873  0.55612665     0.74550
Zr231      Zr  0.45962740  0.03686015  0.54937560     2.77540
O232        O  0.40831865  0.08726246  0.54931721    -0.96170
O233        O  0.46325620  0.03606165  0.60994699    -0.76990
Zr234      Zr  0.45968683  0.03675313  0.95046850     2.70070
O235        O  0.40826542  0.08696770  0.95043209    -0.78240
O236        O  0.46351173  0.03536870  0.88992780    -0.97330
Zr237      Zr  0.03910968  0.03115878  0.99986886     2.21500
Zr238      Zr  0.46422465  0.45804278  0.49972689     2.11130
O239        O  0.44031696  0.01861288  0.49978731    -2.46010
O240        O  0.47859205  0.05548613  0.50001033    -0.78030
O241        O  0.48197945  0.47658193  0.55029272    -0.70230
O242        O  0.01998316  0.01339756  0.94950103    -2.31190
O243        O  0.02002754  0.01399188  0.55034069    -2.27390
O244        O  0.48178109  0.47637478  0.94934868    -0.71990
H245        H  0.03239788  0.40954879  0.00032259     0.80010
H246        H  0.02847233  0.02160977  0.93027110     0.81090
H247        H  0.41579551  0.02637520  0.49968957     0.83320
H248        H  0.02853931  0.02246789  0.56953598     0.80930
H249        H  0.04306342  0.47697485  0.88404727     0.43960
H250        H  0.46437861  0.01227123  0.88366061     0.42930
H251        H  0.40911865  0.09847564  0.97182672     0.42610
H252        H  0.39202947  0.08119380  0.53504436     0.40540
H253        H  0.46855150  0.01192159  0.61594285     0.43680
H254        H  0.04286264  0.47935554  0.61577807     0.38460
H255        H  0.10228629  0.40075930  0.52905668     0.44580
H256        H  0.08926479  0.38655188  0.96289183     0.40990
H257        H  0.39913342  0.08843152  0.57215634     0.45910
H258        H  0.06014419  0.43981560  0.61810259     0.44630
H259        H  0.09237379  0.39325211  0.92482522     0.44770
H260        H  0.44085858  0.05056461  0.88231539     0.45130
C261        C  0.00234473  0.27354639  0.62589000     0.04680
C262        C  0.00138604  0.24508997  0.60813343    -0.11470
C263        C  0.00383300  0.21517440  0.62503396     0.02180
C264        C  0.00647417  0.21416982  0.65992760    -0.10000
C265        C  0.00657399  0.24279315  0.67805818     0.04670
C266        C  0.00490998  0.27230222  0.66077404    -0.09420
H267        H  0.99966564  0.24593161  0.58116717     0.10270
H268        H  0.00822335  0.19109804  0.67298842     0.07790
H269        H  0.00489725  0.29460058  0.67444895     0.07640
C270        C  0.00437884  0.27195161  0.87515561     0.04680
C271        C  0.00401505  0.24325187  0.89248216    -0.11470
C272        C  0.00584888  0.21368191  0.87508356     0.02180
C273        C  0.00790786  0.21306763  0.84016564    -0.10000
C274        C  0.00763602  0.24195912  0.82249319     0.04670
C275        C  0.00605865  0.27133407  0.84026647    -0.09420
H276        H  0.00261789  0.24383787  0.91946375     0.10270
H277        H  0.00935457  0.19016737  0.82674926     0.07790
H278        H  0.00560477  0.29389850  0.82700905     0.07640
C279        C  0.28469910  0.48269605  0.62616126     0.04680
C280        C  0.25527470  0.48452528  0.60835815    -0.11470
C281        C  0.22712676  0.48128851  0.62482970     0.02180
C282        C  0.22903155  0.47579405  0.65942020    -0.10000
C283        C  0.25780299  0.47512708  0.67764572     0.04670
C284        C  0.28574211  0.47817571  0.66081645    -0.09420
H285        H  0.25403251  0.48951304  0.58182781     0.10270
H286        H  0.20780941  0.47264662  0.67244343     0.07790
H287        H  0.30803307  0.47773914  0.67474932     0.07640
C288        C  0.28590656  0.48135532  0.87379639     0.04680
C289        C  0.25681600  0.48255081  0.89163899    -0.11470
C290        C  0.22750730  0.48221493  0.87482776     0.02180
C291        C  0.22802652  0.48013557  0.83981417    -0.10000
C292        C  0.25728008  0.47778763  0.82177213     0.04670
C293        C  0.28608182  0.47854292  0.83894304    -0.09420
H294        H  0.25722676  0.48350164  0.91860920     0.10270
H295        H  0.20547937  0.48060574  0.82637833     0.07790
H296        H  0.30827159  0.47818387  0.82506579     0.07640
C297        C  0.23094799  0.49897631  0.73186768     0.25150
C298        C  0.25733309  0.47442755  0.71452077    -0.22960
C299        C  0.28356243  0.45046732  0.73261736     0.20050
C300        C  0.28343978  0.45123840  0.76753114     0.25090
C301        C  0.25718281  0.47612783  0.78484712    -0.22910
C302        C  0.23091795  0.49989035  0.76663045     0.19990
F303        F  0.20581018  0.02489709  0.78247258    -0.12870
F304        F  0.20579222  0.02302237  0.71506961    -0.15230
F305        F  0.30867582  0.42737561  0.78443093    -0.15230
F306        F  0.30900827  0.42607497  0.71648771    -0.12870
C307        C  0.03087350  0.25271643  0.73287425     0.25150
C308        C  0.00741221  0.24214490  0.71504499    -0.22960
C309        C  0.48424551  0.23138163  0.73280589     0.20050
C310        C  0.48449077  0.23119071  0.76763801     0.25090
C311        C  0.00790464  0.24176188  0.78550155    -0.22910
C312        C  0.03110904  0.25253716  0.76778086     0.19990
F313        F  0.05450907  0.26220940  0.78426561    -0.12870
F314        F  0.05406835  0.26253427  0.71648705    -0.15230
F315        F  0.46102828  0.22170503  0.78394379    -0.15230
F316        F  0.46054931  0.22207506  0.71641868    -0.12870
C317        C  0.47579686  0.15607007  0.92882449     0.25150
C318        C  0.00338219  0.12529510  0.92654766    -0.22960
C319        C  0.03206655  0.12388172  0.90789264     0.20050
C320        C  0.03283090  0.15266556  0.89106939     0.25090
C321        C  0.00525372  0.18345293  0.89330944    -0.22910
C322        C  0.47689369  0.18508274  0.91262316     0.19990
F323        F  0.45000901  0.21461554  0.91520489    -0.12870
F324        F  0.44811899  0.15813843  0.94725490    -0.15230
F325        F  0.06063042  0.15063329  0.87285194    -0.15230
F326        F  0.05896895  0.09435725  0.90529073    -0.12870
C327        C  0.47188258  0.32791342  0.90096943     0.25150
C328        C  0.00317407  0.30266609  0.89355797    -0.22960
C329        C  0.03341076  0.30682487  0.90368898     0.20050
C330        C  0.03246751  0.33644128  0.92026020     0.25090
C331        C  0.00114812  0.36222583  0.92726275    -0.22910
C332        C  0.47081765  0.35732482  0.91810335     0.19990
F333        F  0.44018045  0.38126313  0.92504432    -0.12870
F334        F  0.44241484  0.32413545  0.89132769    -0.15230
F335        F  0.06217376  0.33955983  0.93012093    -0.15230
F336        F  0.06384808  0.28216505  0.89743759    -0.12870
C337        C  0.03091436  0.12489901  0.59259224     0.25150
C338        C  0.00280306  0.12606691  0.57295352    -0.22960
C339        C  0.47540802  0.15686390  0.56969017     0.20050
C340        C  0.47607497  0.18614047  0.58598966     0.25090
C341        C  0.00380892  0.18476853  0.60637693    -0.22910
C342        C  0.03126029  0.15394144  0.60948278     0.19990
F343        F  0.05853049  0.15208049  0.62867912    -0.12870
F344        F  0.05761936  0.09536339  0.59611941    -0.15230
F345        F  0.44930169  0.21563615  0.58254473    -0.15230
F346        F  0.44829060  0.15865092  0.55030051    -0.12870
C347        C  0.02981216  0.31476780  0.60947123     0.25150
C348        C  0.00159182  0.30441540  0.60803565    -0.22960
C349        C  0.47279571  0.32373568  0.58979890     0.20050
C350        C  0.47199343  0.35344259  0.57357231     0.25090
C351        C  0.00028836  0.36415477  0.57501962    -0.22910
C352        C  0.02934882  0.34413045  0.59303436     0.19990
F353        F  0.05774389  0.35246661  0.59444942    -0.12870
F354        F  0.05820203  0.29597077  0.62637594    -0.15230
F355        F  0.44326022  0.37188753  0.55698217    -0.15230
F356        F  0.44512386  0.31420977  0.58837012    -0.12870
C357        C  0.34841868  0.46027163  0.88555691     0.25150
C358        C  0.31582998  0.48428577  0.89129196    -0.22960
C359        C  0.31219942  0.01193860  0.91274703     0.20050
C360        C  0.34070299  0.01543209  0.92821731     0.25090
C361        C  0.37308887  0.49121756  0.92263658    -0.22910
C362        C  0.37679962  0.46377768  0.90111601     0.19990
F363        F  0.40808750  0.44073643  0.89471889    -0.12870
F364        F  0.35269455  0.43315224  0.86526217    -0.15230
F365        F  0.33666512  0.04206020  0.94910312    -0.15230
F366        F  0.28114475  0.03591141  0.91816925    -0.12870
C367        C  0.15410755  0.00974273  0.93678265     0.25150
C368        C  0.13470392  0.49009319  0.92639349    -0.22960
C369        C  0.14672737  0.46737934  0.89939981     0.20050
C370        C  0.17722036  0.46413076  0.88365906     0.25090
C371        C  0.19616313  0.48434429  0.89341619    -0.22910
C372        C  0.18425262  0.00715864  0.92027053     0.19990
F373        F  0.20124239  0.02773019  0.93011818    -0.12870
F374        F  0.14414137  0.03144879  0.96302450    -0.15230
F375        F  0.18842678  0.44056764  0.85905878    -0.15230
F376        F  0.12895886  0.44819384  0.88771574    -0.12870
C377        C  0.35555095  0.01402996  0.60130986     0.25150
C378        C  0.37149182  0.49130099  0.57532986    -0.22960
C379        C  0.35783216  0.46613573  0.56610559     0.20050
C380        C  0.32956799  0.46366769  0.58250608     0.25090
C381        C  0.31421083  0.48602311  0.60854951    -0.22910
C382        C  0.32731399  0.01127428  0.61776781     0.19990
F383        F  0.31235377  0.03370136  0.64242817    -0.12870
F384        F  0.36714724  0.03897418  0.61101247    -0.15230
F385        F  0.31764803  0.43874782  0.57342222    -0.15230
F386        F  0.37171825  0.44355037  0.54124327    -0.12870
C387        C  0.16579210  0.47247904  0.55840998     0.25150
C388        C  0.13438093  0.49178809  0.57234430    -0.22960
C389        C  0.13332017  0.00808453  0.60303220     0.20050
C390        C  0.16342691  0.50516142  0.61976804     0.25090
C391        C  0.19519690  0.48515875  0.60636665    -0.22910
C392        C  0.19601658  0.46897135  0.57533933     0.19990
F393        F  0.22592882  0.44880389  0.56190934    -0.12870
F394        F  0.16708407  0.45645771  0.52870894    -0.15230
F395        F  0.16143450  0.02232120  0.64888953    -0.15230
F396        F  0.10303556  0.02652197  0.61697318    -0.12870
O397        O  0.09105449  0.96963352  0.06372772    -0.73740
O398        O  0.08897380  0.51729496  0.03527676    -0.52650
C399        C  0.10273739  0.99307925  0.05599527     0.79990
O400        O  0.02434725  0.90526877  0.43608718    -0.58340
O401        O  0.47633271  0.90850150  0.46421844    -0.51370
C402        C  0.50042960  0.89409068  0.44354995     0.72000
O403        O  0.09032302  0.96911265  0.43672031    -0.72740
O404        O  0.08897390  0.51691064  0.46426188    -0.53470
C405        C  0.10261415  0.99236329  0.44363327     0.78000
O406        O  0.02330772  0.90746899  0.06569016    -0.58050
O407        O  0.47659563  0.90908232  0.03596295    -0.51160
C408        C  0.49987888  0.89564531  0.05783283     0.74600
Zr409      Zr  0.04214243  0.95381063  0.04978634     2.54710
O410        O  0.09200137  0.90212512  0.05141696    -0.78610
O411        O  0.03919636  0.95790542  0.11033976    -0.92030
Zr412      Zr  0.04184678  0.95316032  0.45040705     2.64680
O413        O  0.09316222  0.90293382  0.44722415    -0.96980
O414        O  0.03702507  0.95696295  0.38992886    -0.79040
O415        O  0.06168738  0.97086753  0.50002405    -0.82400
O416        O  0.02450075  0.93407183  0.50014714    -2.17110
O417        O  0.41333129  0.51726962  0.06614521    -0.65790
O418        O  0.41578718  0.97065283  0.03580528    -0.50360
C419        C  0.40213904  0.49332064  0.05805162     0.72980
O420        O  0.47702858  0.58511729  0.43726135    -0.58700
O421        O  0.02725658  0.57941174  0.46316459    -0.50680
C422        C  0.00241155  0.59469159  0.44352109     0.74780
O423        O  0.41273959  0.51826001  0.43388985    -0.70090
O424        O  0.41690650  0.96956164  0.46166070    -0.48770
C425        C  0.40280759  0.49326650  0.44056058     0.76160
O426        O  0.47693531  0.58538485  0.06249229    -0.65420
O427        O  0.02693344  0.57984819  0.03650584    -0.52620
C428        C  0.00211516  0.59514873  0.05612665     0.74550
Zr429      Zr  0.45962739  0.53686016  0.04937559     2.77540
O430        O  0.40831863  0.58726247  0.04931719    -0.96170
O431        O  0.46325617  0.53606167  0.10994699    -0.76990
Zr432      Zr  0.45968684  0.53675313  0.45046850     2.70070
O433        O  0.40826542  0.58696770  0.45043207    -0.78240
O434        O  0.46351175  0.53536869  0.38992779    -0.97330
Zr435      Zr  0.03910967  0.53115880  0.49986886     2.21500
Zr436      Zr  0.46422465  0.95804277  0.99972689     2.11130
O437        O  0.44031696  0.51861288  0.99978731    -2.46010
O438        O  0.47859204  0.55548614  0.00001032    -0.78030
O439        O  0.48197945  0.97658192  0.05029272    -0.70230
O440        O  0.01998316  0.51339757  0.44950103    -2.31190
O441        O  0.02002753  0.51399189  0.05034069    -2.27390
O442        O  0.48178109  0.97637479  0.44934867    -0.71990
H443        H  0.03239787  0.90954879  0.50032257     0.80010
H444        H  0.02847233  0.52160978  0.43027110     0.81090
H445        H  0.41579550  0.52637519  0.99968956     0.83320
H446        H  0.02853930  0.52246790  0.06953597     0.80930
H447        H  0.04306342  0.97697487  0.38404726     0.43960
H448        H  0.46437861  0.51227122  0.38366061     0.42930
H449        H  0.40911865  0.59847564  0.47182669     0.42610
H450        H  0.39202945  0.58119380  0.03504435     0.40540
H451        H  0.46855148  0.51192162  0.11594285     0.43680
H452        H  0.04286264  0.97935553  0.11577807     0.38460
H453        H  0.10228628  0.90075927  0.02905667     0.44580
H454        H  0.08926478  0.88655189  0.46289180     0.40990
H455        H  0.39913340  0.58843154  0.07215631     0.45910
H456        H  0.06014419  0.93981559  0.11810258     0.44630
H457        H  0.09237377  0.89325213  0.42482518     0.44770
H458        H  0.44085861  0.55056461  0.38231538     0.45130
C459        C  0.00234474  0.77354638  0.12589000     0.04680
C460        C  0.00138604  0.74508996  0.10813343    -0.11470
C461        C  0.00383301  0.71517439  0.12503396     0.02180
C462        C  0.00647417  0.71416981  0.15992761    -0.10000
C463        C  0.00657400  0.74279314  0.17805818     0.04670
C464        C  0.00490999  0.77230221  0.16077403    -0.09420
H465        H  0.99966565  0.74593160  0.08116717     0.10270
H466        H  0.00822335  0.69109804  0.17298842     0.07790
H467        H  0.00489726  0.79460057  0.17444895     0.07640
C468        C  0.00437883  0.77195162  0.37515561     0.04680
C469        C  0.00401503  0.74325189  0.39248216    -0.11470
C470        C  0.00584886  0.71368192  0.37508356     0.02180
C471        C  0.00790785  0.71306764  0.34016563    -0.10000
C472        C  0.00763602  0.74195913  0.32249318     0.04670
C473        C  0.00605865  0.77133408  0.34026646    -0.09420
H474        H  0.00261787  0.74383789  0.41946375     0.10270
H475        H  0.00935457  0.69016737  0.32674926     0.07790
H476        H  0.00560477  0.79389851  0.32700905     0.07640
C477        C  0.28469910  0.98269603  0.12616127     0.04680
C478        C  0.25527470  0.98452526  0.10835816    -0.11470
C479        C  0.22712676  0.98128850  0.12482971     0.02180
C480        C  0.22903155  0.97579404  0.15942021    -0.10000
C481        C  0.25780299  0.97512707  0.17764573     0.04670
C482        C  0.28574211  0.97817569  0.16081646    -0.09420
H483        H  0.25403252  0.98951302  0.08182782     0.10270
H484        H  0.20780941  0.97264661  0.17244344     0.07790
H485        H  0.30803307  0.97773912  0.17474933     0.07640
C486        C  0.28590656  0.98135531  0.37379640     0.04680
C487        C  0.25681601  0.98255081  0.39163900    -0.11470
C488        C  0.22750730  0.98221492  0.37482777     0.02180
C489        C  0.22802653  0.98013556  0.33981418    -0.10000
C490        C  0.25728008  0.97778761  0.32177214     0.04670
C491        C  0.28608183  0.97854290  0.33894304    -0.09420
H492        H  0.25722676  0.98350165  0.41860921     0.10270
H493        H  0.20547938  0.98060573  0.32637834     0.07790
H494        H  0.30827160  0.97818386  0.32506579     0.07640
C495        C  0.23094799  0.99897630  0.23186769     0.25150
C496        C  0.25733309  0.97442754  0.21452078    -0.22960
C497        C  0.28356243  0.95046730  0.23261737     0.20050
C498        C  0.28343978  0.95123838  0.26753115     0.25090
C499        C  0.25718282  0.97612781  0.28484713    -0.22910
C500        C  0.23091796  0.99989034  0.26663046     0.19990
F501        F  0.20581019  0.52489710  0.28247259    -0.12870
F502        F  0.20579222  0.52302238  0.21506961    -0.15230
F503        F  0.30867581  0.92737558  0.28443094    -0.15230
F504        F  0.30900826  0.92607494  0.21648772    -0.12870
C505        C  0.03087351  0.75271643  0.23287425     0.25150
C506        C  0.00741221  0.74214490  0.21504499    -0.22960
C507        C  0.48424553  0.73138163  0.23280589     0.20050
C508        C  0.48449079  0.73119070  0.26763801     0.25090
C509        C  0.00790464  0.74176188  0.28550154    -0.22910
C510        C  0.03110904  0.75253716  0.26778086     0.19990
F511        F  0.05450907  0.76220940  0.28426561    -0.12870
F512        F  0.05406836  0.76253426  0.21648705    -0.15230
F513        F  0.46102830  0.72170503  0.28394380    -0.15230
F514        F  0.46054933  0.72207505  0.21641869    -0.12870
C515        C  0.47579686  0.65607007  0.42882447     0.25150
C516        C  0.00338218  0.62529511  0.42654766    -0.22960
C517        C  0.03206654  0.62388174  0.40789265     0.20050
C518        C  0.03283090  0.65266558  0.39106940     0.25090
C519        C  0.00525371  0.68345295  0.39330944    -0.22910
C520        C  0.47689368  0.68508274  0.41262314     0.19990
F521        F  0.45000900  0.71461554  0.41520486    -0.12870
F522        F  0.44811898  0.65813843  0.44725487    -0.15230
F523        F  0.06063042  0.65063331  0.37285196    -0.15230
F524        F  0.05896896  0.59435727  0.40529076    -0.12870
C525        C  0.47188259  0.82791341  0.40096945     0.25150
C526        C  0.00317406  0.80266610  0.39355796    -0.22960
C527        C  0.03341075  0.80682490  0.40368894     0.20050
C528        C  0.03246750  0.83644131  0.42026017     0.25090
C529        C  0.00114811  0.86222584  0.42726274    -0.22910
C530        C  0.47081765  0.85732481  0.41810337     0.19990
F531        F  0.44018045  0.88126311  0.42504436    -0.12870
F532        F  0.44241484  0.82413542  0.39132773    -0.15230
F533        F  0.06217376  0.83955987  0.43012086    -0.15230
F534        F  0.06384808  0.78216509  0.39743752    -0.12870
C535        C  0.03091437  0.62489901  0.09259224     0.25150
C536        C  0.00280306  0.62606691  0.07295352    -0.22960
C537        C  0.47540801  0.65686390  0.06969019     0.20050
C538        C  0.47607495  0.68614047  0.08598968     0.25090
C539        C  0.00380892  0.68476852  0.10637694    -0.22910
C540        C  0.03126029  0.65394143  0.10948278     0.19990
F541        F  0.05853050  0.65208049  0.12867911    -0.12870
F542        F  0.05761936  0.59536339  0.09611939    -0.15230
F543        F  0.44930167  0.71563614  0.08254476    -0.15230
F544        F  0.44829057  0.65865092  0.05030054    -0.12870
C545        C  0.02981217  0.81476779  0.10947123     0.25150
C546        C  0.00159183  0.80441539  0.10803565    -0.22960
C547        C  0.47279571  0.82373568  0.08979890     0.20050
C548        C  0.47199342  0.85344259  0.07357231     0.25090
C549        C  0.00028837  0.86415475  0.07501961    -0.22910
C550        C  0.02934882  0.84413044  0.09303436     0.19990
F551        F  0.05774389  0.85246660  0.09444942    -0.12870
F552        F  0.05820204  0.79597076  0.12637594    -0.15230
F553        F  0.44326022  0.87188752  0.05698217    -0.15230
F554        F  0.44512385  0.81420977  0.08837013    -0.12870
C555        C  0.34841868  0.96027162  0.38555693     0.25150
C556        C  0.31582999  0.98428577  0.39129196    -0.22960
C557        C  0.31219943  0.51193860  0.41274703     0.20050
C558        C  0.34070299  0.51543209  0.42821731     0.25090
C559        C  0.37308887  0.99121756  0.42263658    -0.22910
C560        C  0.37679962  0.96377767  0.40111603     0.19990
F561        F  0.40808750  0.94073642  0.39471893    -0.12870
F562        F  0.35269456  0.93315222  0.36526220    -0.15230
F563        F  0.33666513  0.54206021  0.44910312    -0.15230
F564        F  0.28114476  0.53591141  0.41816926    -0.12870
C565        C  0.15410755  0.50974274  0.43678266     0.25150
C566        C  0.13470392  0.99009318  0.42639349    -0.22960
C567        C  0.14672738  0.96737933  0.39939982     0.20050
C568        C  0.17722038  0.96413074  0.38365908     0.25090
C569        C  0.19616313  0.98434428  0.39341620    -0.22910
C570        C  0.18425262  0.50715865  0.42027054     0.19990
F571        F  0.20124240  0.52773020  0.43011819    -0.12870
F572        F  0.14414137  0.53144880  0.46302451    -0.15230
F573        F  0.18842680  0.94056761  0.35905880    -0.15230
F574        F  0.12895888  0.94819382  0.38771576    -0.12870
C575        C  0.35555095  0.51402996  0.10130986     0.25150
C576        C  0.37149183  0.99130097  0.07532987    -0.22960
C577        C  0.35783215  0.96613573  0.06610558     0.20050
C578        C  0.32956799  0.96366769  0.08250607     0.25090
C579        C  0.31421083  0.98602309  0.10854952    -0.22910
C580        C  0.32731398  0.51127428  0.11776781     0.19990
F581        F  0.31235377  0.53370136  0.14242818    -0.12870
F582        F  0.36714723  0.53897418  0.11101247    -0.15230
F583        F  0.31764802  0.93874783  0.07342221    -0.15230
F584        F  0.37171823  0.94355038  0.04124325    -0.12870
C585        C  0.16579210  0.97247901  0.05840999     0.25150
C586        C  0.13438094  0.99178806  0.07234430    -0.22960
C587        C  0.13332016  0.50808454  0.10303222     0.20050
C588        C  0.16342691  0.00516141  0.11976804     0.25090
C589        C  0.19519690  0.98515873  0.10636666    -0.22910
C590        C  0.19601659  0.96897132  0.07533934     0.19990
F591        F  0.22592883  0.94880386  0.06190936    -0.12870
F592        F  0.16708408  0.95645766  0.02870896    -0.15230
F593        F  0.16143449  0.52232120  0.14888955    -0.15230
F594        F  0.10303555  0.52652197  0.11697321    -0.12870
O595        O  0.09105450  0.96963351  0.56372771    -0.73740
O596        O  0.08897380  0.51729496  0.53527676    -0.52650
C597        C  0.10273740  0.99307925  0.55599527     0.79990
O598        O  0.02434725  0.90526876  0.93608719    -0.58340
O599        O  0.47633270  0.90850150  0.96421845    -0.51370
C600        C  0.50042959  0.89409067  0.94354996     0.72000
O601        O  0.09032302  0.96911264  0.93672031    -0.72740
O602        O  0.08897391  0.51691063  0.96426188    -0.53470
C603        C  0.10261415  0.99236328  0.94363327     0.78000
O604        O  0.02330772  0.90746900  0.56569016    -0.58050
O605        O  0.47659564  0.90908233  0.53596294    -0.51160
C606        C  0.49987888  0.89564532  0.55783282     0.74600
Zr607      Zr  0.04214243  0.95381063  0.54978634     2.54710
O608        O  0.09200137  0.90212511  0.55141692    -0.78610
O609        O  0.03919640  0.95790540  0.61033975    -0.92030
Zr610      Zr  0.04184678  0.95316031  0.95040705     2.64680
O611        O  0.09316222  0.90293381  0.94722416    -0.96980
O612        O  0.03702507  0.95696293  0.88992886    -0.79040
O613        O  0.06168738  0.97086752  0.00002406    -0.82400
O614        O  0.02450075  0.93407182  0.00014715    -2.17110
O615        O  0.41333129  0.51726962  0.56614521    -0.65790
O616        O  0.41578719  0.97065284  0.53580527    -0.50360
C617        C  0.40213904  0.49332064  0.55805162     0.72980
O618        O  0.47702858  0.58511729  0.93726135    -0.58700
O619        O  0.02725659  0.57941173  0.96316459    -0.50680
C620        C  0.00241156  0.59469158  0.94352109     0.74780
O621        O  0.41273959  0.51826001  0.93388985    -0.70090
O622        O  0.41690649  0.96956164  0.96166070    -0.48770
C623        C  0.40280759  0.49326649  0.94056058     0.76160
O624        O  0.47693532  0.58538485  0.56249228    -0.65420
O625        O  0.02693343  0.57984820  0.53650584    -0.52620
C626        C  0.00211515  0.59514874  0.55612664     0.74550
Zr627      Zr  0.45962739  0.53686016  0.54937559     2.77540
O628        O  0.40831863  0.58726247  0.54931719    -0.96170
O629        O  0.46325617  0.53606167  0.60994699    -0.76990
Zr630      Zr  0.45968684  0.53675313  0.95046850     2.70070
O631        O  0.40826542  0.58696769  0.95043207    -0.78240
O632        O  0.46351174  0.53536869  0.88992780    -0.97330
Zr633      Zr  0.03910968  0.53115879  0.99986886     2.21500
Zr634      Zr  0.46422466  0.95804278  0.49972689     2.11130
O635        O  0.44031696  0.51861288  0.49978731    -2.46010
O636        O  0.47859204  0.55548614  0.50001032    -0.78030
O637        O  0.48197946  0.97658192  0.55029271    -0.70230
O638        O  0.01998317  0.51339756  0.94950103    -2.31190
O639        O  0.02002753  0.51399189  0.55034069    -2.27390
O640        O  0.48178108  0.97637478  0.94934868    -0.71990
H641        H  0.03239787  0.90954879  0.00032258     0.80010
H642        H  0.02847234  0.52160977  0.93027110     0.81090
H643        H  0.41579550  0.52637520  0.49968956     0.83320
H644        H  0.02853930  0.52246790  0.56953597     0.80930
H645        H  0.04306343  0.97697485  0.88404726     0.43960
H646        H  0.46437863  0.51227121  0.88366061     0.42930
H647        H  0.40911866  0.59847564  0.97182670     0.42610
H648        H  0.39202945  0.58119381  0.53504434     0.40540
H649        H  0.46855147  0.51192162  0.61594285     0.43680
H650        H  0.04286266  0.97935551  0.61577807     0.38460
H651        H  0.10228629  0.90075929  0.52905664     0.44580
H652        H  0.08926478  0.88655188  0.96289181     0.40990
H653        H  0.39913340  0.58843154  0.57215632     0.45910
H654        H  0.06014424  0.93981558  0.61810257     0.44630
H655        H  0.09237378  0.89325212  0.92482520     0.44770
H656        H  0.44085859  0.55056460  0.88231538     0.45130
C657        C  0.00234473  0.77354639  0.62589000     0.04680
C658        C  0.00138603  0.74508997  0.60813343    -0.11470
C659        C  0.00383300  0.71517440  0.62503395     0.02180
C660        C  0.00647417  0.71416981  0.65992760    -0.10000
C661        C  0.00657400  0.74279314  0.67805818     0.04670
C662        C  0.00490999  0.77230222  0.66077403    -0.09420
H663        H  0.99966564  0.74593161  0.58116717     0.10270
H664        H  0.00822335  0.69109804  0.67298842     0.07790
H665        H  0.00489726  0.79460058  0.67444895     0.07640
C666        C  0.00437885  0.77195161  0.87515560     0.04680
C667        C  0.00401506  0.74325187  0.89248216    -0.11470
C668        C  0.00584889  0.71368190  0.87508356     0.02180
C669        C  0.00790788  0.71306763  0.84016563    -0.10000
C670        C  0.00763604  0.74195912  0.82249318     0.04670
C671        C  0.00605867  0.77133407  0.84026646    -0.09420
H672        H  0.00261789  0.74383787  0.91946375     0.10270
H673        H  0.00935460  0.69016736  0.82674926     0.07790
H674        H  0.00560479  0.79389850  0.82700905     0.07640
C675        C  0.28469910  0.98269604  0.62616126     0.04680
C676        C  0.25527470  0.98452526  0.60835815    -0.11470
C677        C  0.22712676  0.98128850  0.62482970     0.02180
C678        C  0.22903156  0.97579404  0.65942020    -0.10000
C679        C  0.25780299  0.97512708  0.67764572     0.04670
C680        C  0.28574211  0.97817570  0.66081645    -0.09420
H681        H  0.25403252  0.98951302  0.58182781     0.10270
H682        H  0.20780942  0.97264661  0.67244343     0.07790
H683        H  0.30803307  0.97773914  0.67474932     0.07640
C684        C  0.28590656  0.98135531  0.87379640     0.04680
C685        C  0.25681600  0.98255080  0.89163899    -0.11470
C686        C  0.22750730  0.98221491  0.87482776     0.02180
C687        C  0.22802653  0.98013555  0.83981417    -0.10000
C688        C  0.25728008  0.97778761  0.82177213     0.04670
C689        C  0.28608182  0.97854290  0.83894304    -0.09420
H690        H  0.25722676  0.98350164  0.91860920     0.10270
H691        H  0.20547938  0.98060572  0.82637833     0.07790
H692        H  0.30827159  0.97818386  0.82506579     0.07640
C693        C  0.23094799  0.99897630  0.73186768     0.25150
C694        C  0.25733310  0.97442754  0.71452077    -0.22960
C695        C  0.28356244  0.95046731  0.73261736     0.20050
C696        C  0.28343978  0.95123839  0.76753114     0.25090
C697        C  0.25718282  0.97612781  0.78484712    -0.22910
C698        C  0.23091795  0.99989034  0.76663045     0.19990
F699        F  0.20581017  0.52489710  0.78247258    -0.12870
F700        F  0.20579221  0.52302237  0.71506960    -0.15230
F701        F  0.30867582  0.92737559  0.78443093    -0.15230
F702        F  0.30900827  0.92607496  0.71648771    -0.12870
C703        C  0.03087352  0.75271643  0.73287424     0.25150
C704        C  0.00741222  0.74214490  0.71504498    -0.22960
C705        C  0.48424551  0.73138164  0.73280589     0.20050
C706        C  0.48449077  0.73119072  0.76763801     0.25090
C707        C  0.00790466  0.74176187  0.78550154    -0.22910
C708        C  0.03110905  0.75253716  0.76778085     0.19990
F709        F  0.05450909  0.76220940  0.78426560    -0.12870
F710        F  0.05406837  0.76253427  0.71648704    -0.15230
F711        F  0.46102827  0.72170505  0.78394379    -0.15230
F712        F  0.46054930  0.72207507  0.71641868    -0.12870
C713        C  0.47579687  0.65607007  0.92882448     0.25150
C714        C  0.00338220  0.62529509  0.92654765    -0.22960
C715        C  0.03206656  0.62388172  0.90789264     0.20050
C716        C  0.03283091  0.65266556  0.89106939     0.25090
C717        C  0.00525373  0.68345293  0.89330943    -0.22910
C718        C  0.47689369  0.68508274  0.91262315     0.19990
F719        F  0.45000901  0.71461554  0.91520488    -0.12870
F720        F  0.44811899  0.65813843  0.94725489    -0.15230
F721        F  0.06063043  0.65063329  0.87285194    -0.15230
F722        F  0.05896896  0.59435725  0.90529074    -0.12870
C723        C  0.47188258  0.82791342  0.90096942     0.25150
C724        C  0.00317407  0.80266609  0.89355797    -0.22960
C725        C  0.03341077  0.80682488  0.90368896     0.20050
C726        C  0.03246751  0.83644129  0.92026019     0.25090
C727        C  0.00114812  0.86222582  0.92726275    -0.22910
C728        C  0.47081764  0.85732482  0.91810335     0.19990
F729        F  0.44018044  0.88126313  0.92504432    -0.12870
F730        F  0.44241484  0.82413544  0.89132769    -0.15230
F731        F  0.06217376  0.83955985  0.93012090    -0.15230
F732        F  0.06384809  0.78216507  0.89743755    -0.12870
C733        C  0.03091435  0.62489901  0.59259224     0.25150
C734        C  0.00280306  0.62606692  0.57295352    -0.22960
C735        C  0.47540801  0.65686391  0.56969017     0.20050
C736        C  0.47607496  0.68614048  0.58598966     0.25090
C737        C  0.00380892  0.68476853  0.60637693    -0.22910
C738        C  0.03126028  0.65394144  0.60948278     0.19990
F739        F  0.05853049  0.65208049  0.62867912    -0.12870
F740        F  0.05761935  0.59536339  0.59611941    -0.15230
F741        F  0.44930168  0.71563615  0.58254473    -0.15230
F742        F  0.44829059  0.65865093  0.55030050    -0.12870
C743        C  0.02981216  0.81476780  0.60947122     0.25150
C744        C  0.00159182  0.80441540  0.60803565    -0.22960
C745        C  0.47279571  0.82373569  0.58979890     0.20050
C746        C  0.47199343  0.85344260  0.57357231     0.25090
C747        C  0.00028836  0.86415477  0.57501961    -0.22910
C748        C  0.02934882  0.84413045  0.59303435     0.19990
F749        F  0.05774389  0.85246660  0.59444940    -0.12870
F750        F  0.05820203  0.79597076  0.62637593    -0.15230
F751        F  0.44326022  0.87188753  0.55698218    -0.15230
F752        F  0.44512385  0.81420978  0.58837013    -0.12870
C753        C  0.34841868  0.96027162  0.88555692     0.25150
C754        C  0.31582998  0.98428576  0.89129196    -0.22960
C755        C  0.31219943  0.51193861  0.91274703     0.20050
C756        C  0.34070299  0.51543209  0.92821731     0.25090
C757        C  0.37308886  0.99121756  0.92263658    -0.22910
C758        C  0.37679961  0.96377768  0.90111601     0.19990
F759        F  0.40808750  0.94073643  0.89471890    -0.12870
F760        F  0.35269455  0.93315223  0.86526218    -0.15230
F761        F  0.33666513  0.54206020  0.94910312    -0.15230
F762        F  0.28114476  0.53591141  0.91816926    -0.12870
C763        C  0.15410756  0.50974273  0.93678266     0.25150
C764        C  0.13470392  0.99009317  0.92639348    -0.22960
C765        C  0.14672738  0.96737931  0.89939982     0.20050
C766        C  0.17722037  0.96413073  0.88365907     0.25090
C767        C  0.19616313  0.98434427  0.89341619    -0.22910
C768        C  0.18425263  0.50715864  0.92027054     0.19990
F769        F  0.20124241  0.52773018  0.93011819    -0.12870
F770        F  0.14414139  0.53144878  0.96302452    -0.15230
F771        F  0.18842680  0.94056760  0.85905879    -0.15230
F772        F  0.12895888  0.94819380  0.88771576    -0.12870
C773        C  0.35555094  0.51402998  0.60130985     0.25150
C774        C  0.37149183  0.99130098  0.57532986    -0.22960
C775        C  0.35783215  0.96613574  0.56610557     0.20050
C776        C  0.32956799  0.96366770  0.58250606     0.25090
C777        C  0.31421083  0.98602310  0.60854950    -0.22910
C778        C  0.32731397  0.51127430  0.61776779     0.19990
F779        F  0.31235374  0.53370139  0.64242815    -0.12870
F780        F  0.36714720  0.53897421  0.61101244    -0.15230
F781        F  0.31764802  0.93874784  0.57342219    -0.15230
F782        F  0.37171823  0.94355040  0.54124324    -0.12870
C783        C  0.16579211  0.97247900  0.55840999     0.25150
C784        C  0.13438095  0.99178806  0.57234430    -0.22960
C785        C  0.13332016  0.50808454  0.60303221     0.20050
C786        C  0.16342692  0.00516142  0.61976803     0.25090
C787        C  0.19519691  0.98515873  0.60636665    -0.22910
C788        C  0.19601660  0.96897131  0.57533934     0.19990
F789        F  0.22592884  0.94880384  0.56190936    -0.12870
F790        F  0.16708408  0.95645765  0.52870896    -0.15230
F791        F  0.16143449  0.52232120  0.64888954    -0.15230
F792        F  0.10303555  0.52652197  0.61697320    -0.12870
O793        O  0.59105448  0.46963354  0.06372772    -0.73740
O794        O  0.58897380  0.01729495  0.03527676    -0.52650
C795        C  0.60273738  0.49307927  0.05599527     0.79990
O796        O  0.52434725  0.40526876  0.43608719    -0.58340
O797        O  0.97633271  0.40850150  0.46421845    -0.51370
C798        C  0.00042960  0.39409068  0.44354996     0.72000
O799        O  0.59032302  0.46911266  0.43672031    -0.72740
O800        O  0.58897391  0.01691063  0.46426188    -0.53470
C801        C  0.60261415  0.49236329  0.44363327     0.78000
O802        O  0.52330772  0.40746900  0.06569016    -0.58050
O803        O  0.97659564  0.40908233  0.03596295    -0.51160
C804        C  0.99987888  0.39564531  0.05783283     0.74600
Zr805      Zr  0.54214242  0.45381064  0.04978635     2.54710
O806        O  0.59200137  0.40212514  0.05141697    -0.78610
O807        O  0.53919636  0.45790543  0.11033976    -0.92030
Zr808      Zr  0.54184678  0.45316032  0.45040706     2.64680
O809        O  0.59316222  0.40293382  0.44722417    -0.96980
O810        O  0.53702508  0.45696293  0.38992887    -0.79040
O811        O  0.56168738  0.47086753  0.50002406    -0.82400
O812        O  0.52450075  0.43407183  0.50014716    -2.17110
O813        O  0.91333130  0.01726962  0.06614521    -0.65790
O814        O  0.91578718  0.47065284  0.03580528    -0.50360
C815        C  0.90213904  0.99332063  0.05805162     0.72980
O816        O  0.97702858  0.08511729  0.43726136    -0.58700
O817        O  0.52725659  0.07941174  0.46316459    -0.50680
C818        C  0.50241156  0.09469158  0.44352110     0.74780
O819        O  0.91273959  0.01826002  0.43388985    -0.70090
O820        O  0.91690649  0.46956164  0.46166070    -0.48770
C821        C  0.90280758  0.99326650  0.44056058     0.76160
O822        O  0.97693533  0.08538484  0.06249229    -0.65420
O823        O  0.52693344  0.07984819  0.03650585    -0.52620
C824        C  0.50211516  0.09514872  0.05612665     0.74550
Zr825      Zr  0.95962739  0.03686015  0.04937559     2.77540
O826        O  0.90831864  0.08726247  0.04931719    -0.96170
O827        O  0.96325618  0.03606166  0.10994699    -0.76990
Zr828      Zr  0.95968684  0.03675314  0.45046850     2.70070
O829        O  0.90826543  0.08696771  0.45043208    -0.78240
O830        O  0.96351174  0.03536870  0.38992780    -0.97330
Zr831      Zr  0.53910968  0.03115879  0.49986886     2.21500
Zr832      Zr  0.96422466  0.45804278  0.99972689     2.11130
O833        O  0.94031696  0.01861288  0.99978731    -2.46010
O834        O  0.97859205  0.05548613  0.00001032    -0.78030
O835        O  0.98197945  0.47658193  0.05029272    -0.70230
O836        O  0.51998317  0.01339756  0.44950103    -2.31190
O837        O  0.52002754  0.01399188  0.05034069    -2.27390
O838        O  0.98178108  0.47637478  0.44934868    -0.71990
H839        H  0.53239788  0.40954880  0.50032259     0.80010
H840        H  0.52847233  0.02160978  0.43027110     0.81090
H841        H  0.91579551  0.02637519  0.99968957     0.83320
H842        H  0.52853930  0.02246789  0.06953597     0.80930
H843        H  0.54306342  0.47697486  0.38404726     0.43960
H844        H  0.96437861  0.01227123  0.38366061     0.42930
H845        H  0.90911865  0.09847564  0.47182672     0.42610
H846        H  0.89202946  0.08119380  0.03504435     0.40540
H847        H  0.96855148  0.01192161  0.11594285     0.43680
H848        H  0.54286263  0.47935554  0.11577807     0.38460
H849        H  0.60228629  0.40075930  0.02905668     0.44580
H850        H  0.58926478  0.38655189  0.46289182     0.40990
H851        H  0.89913341  0.08843153  0.07215632     0.45910
H852        H  0.56014419  0.43981561  0.11810259     0.44630
H853        H  0.59237379  0.39325212  0.42482521     0.44770
H854        H  0.94085860  0.05056462  0.38231539     0.45130
C855        C  0.50234476  0.27354638  0.12588999     0.04680
C856        C  0.50138606  0.24508995  0.10813342    -0.11470
C857        C  0.50383303  0.21517438  0.12503395     0.02180
C858        C  0.50647419  0.21416980  0.15992760    -0.10000
C859        C  0.50657402  0.24279313  0.17805818     0.04670
C860        C  0.50491001  0.27230220  0.16077403    -0.09420
H861        H  0.49966567  0.24593159  0.08116717     0.10270
H862        H  0.50822337  0.19109803  0.17298842     0.07790
H863        H  0.50489728  0.29460057  0.17444894     0.07640
C864        C  0.50437882  0.27195163  0.37515560     0.04680
C865        C  0.50401503  0.24325189  0.39248216    -0.11470
C866        C  0.50584886  0.21368192  0.37508356     0.02180
C867        C  0.50790785  0.21306764  0.34016563    -0.10000
C868        C  0.50763601  0.24195913  0.32249318     0.04670
C869        C  0.50605864  0.27133408  0.34026646    -0.09420
H870        H  0.50261786  0.24383789  0.41946375     0.10270
H871        H  0.50935457  0.19016737  0.32674926     0.07790
H872        H  0.50560476  0.29389851  0.32700905     0.07640
C873        C  0.78469910  0.48269605  0.12616126     0.04680
C874        C  0.75527470  0.48452527  0.10835815    -0.11470
C875        C  0.72712676  0.48128851  0.12482971     0.02180
C876        C  0.72903155  0.47579405  0.15942020    -0.10000
C877        C  0.75780299  0.47512708  0.17764572     0.04670
C878        C  0.78574211  0.47817570  0.16081645    -0.09420
H879        H  0.75403251  0.48951304  0.08182781     0.10270
H880        H  0.70780941  0.47264662  0.17244343     0.07790
H881        H  0.80803307  0.47773913  0.17474932     0.07640
C882        C  0.78590656  0.48135531  0.37379640     0.04680
C883        C  0.75681600  0.48255081  0.39163899    -0.11470
C884        C  0.72750730  0.48221493  0.37482776     0.02180
C885        C  0.72802652  0.48013556  0.33981417    -0.10000
C886        C  0.75728008  0.47778762  0.32177213     0.04670
C887        C  0.78608183  0.47854291  0.33894304    -0.09420
H888        H  0.75722676  0.48350165  0.41860920     0.10270
H889        H  0.70547938  0.48060573  0.32637833     0.07790
H890        H  0.80827159  0.47818386  0.32506579     0.07640
C891        C  0.73094799  0.49897630  0.23186768     0.25150
C892        C  0.75733309  0.47442754  0.21452077    -0.22960
C893        C  0.78356243  0.45046731  0.23261736     0.20050
C894        C  0.78343978  0.45123839  0.26753114     0.25090
C895        C  0.75718282  0.47612782  0.28484712    -0.22910
C896        C  0.73091795  0.49989034  0.26663045     0.19990
F897        F  0.70581018  0.02489708  0.28247259    -0.12870
F898        F  0.70579221  0.02302236  0.21506961    -0.15230
F899        F  0.80867582  0.42737559  0.28443093    -0.15230
F900        F  0.80900827  0.42607495  0.21648771    -0.12870
C901        C  0.53087351  0.25271644  0.23287425     0.25150
C902        C  0.50741222  0.24214490  0.21504498    -0.22960
C903        C  0.98424555  0.23138161  0.23280589     0.20050
C904        C  0.98449081  0.23119069  0.26763801     0.25090
C905        C  0.50790464  0.24176188  0.28550154    -0.22910
C906        C  0.53110903  0.25253717  0.26778086     0.19990
F907        F  0.55450906  0.26220943  0.28426561    -0.12870
F908        F  0.55406836  0.26253428  0.21648705    -0.15230
F909        F  0.96102832  0.22170501  0.28394379    -0.15230
F910        F  0.96054935  0.22207502  0.21641868    -0.12870
C911        C  0.97579688  0.15607007  0.42882449     0.25150
C912        C  0.50338219  0.12529510  0.42654766    -0.22960
C913        C  0.53206655  0.12388173  0.40789265     0.20050
C914        C  0.53283090  0.15266558  0.39106939     0.25090
C915        C  0.50525371  0.18345294  0.39330944    -0.22910
C916        C  0.97689370  0.18508274  0.41262316     0.19990
F917        F  0.95000903  0.21461555  0.41520489    -0.12870
F918        F  0.94811900  0.15813844  0.44725489    -0.15230
F919        F  0.56063042  0.15063331  0.37285195    -0.15230
F920        F  0.55896896  0.09435727  0.40529075    -0.12870
C921        C  0.97188259  0.32791342  0.40096943     0.25150
C922        C  0.50317405  0.30266610  0.39355796    -0.22960
C923        C  0.53341075  0.30682490  0.40368894     0.20050
C924        C  0.53246750  0.33644130  0.42026017     0.25090
C925        C  0.50114811  0.36222583  0.42726275    -0.22910
C926        C  0.97081765  0.35732482  0.41810336     0.19990
F927        F  0.94018045  0.38126312  0.42504434    -0.12870
F928        F  0.94241485  0.32413543  0.39132771    -0.15230
F929        F  0.56217375  0.33955986  0.43012087    -0.15230
F930        F  0.56384807  0.28216508  0.39743752    -0.12870
C931        C  0.53091438  0.12489900  0.09259223     0.25150
C932        C  0.50280307  0.12606690  0.07295353    -0.22960
C933        C  0.97540802  0.15686389  0.06969019     0.20050
C934        C  0.97607497  0.18614046  0.08598968     0.25090
C935        C  0.50380894  0.18476851  0.10637694    -0.22910
C936        C  0.53126031  0.15394143  0.10948276     0.19990
F937        F  0.55853053  0.15208048  0.12867908    -0.12870
F938        F  0.55761938  0.09536338  0.09611938    -0.15230
F939        F  0.94930169  0.21563613  0.08254476    -0.15230
F940        F  0.94829059  0.15865091  0.05030053    -0.12870
C941        C  0.52981218  0.31476779  0.10947122     0.25150
C942        C  0.50159184  0.30441538  0.10803564    -0.22960
C943        C  0.97279573  0.32373567  0.08979889     0.20050
C944        C  0.97199344  0.35344258  0.07357230     0.25090
C945        C  0.50028838  0.36415476  0.07501961    -0.22910
C946        C  0.52934883  0.34413044  0.09303435     0.19990
F947        F  0.55774390  0.35246660  0.09444942    -0.12870
F948        F  0.55820205  0.29597076  0.12637593    -0.15230
F949        F  0.94326024  0.37188751  0.05698216    -0.15230
F950        F  0.94512388  0.31420975  0.08837010    -0.12870
C951        C  0.84841868  0.46027162  0.38555692     0.25150
C952        C  0.81582998  0.48428577  0.39129196    -0.22960
C953        C  0.81219943  0.01193861  0.41274702     0.20050
C954        C  0.84070299  0.01543210  0.42821730     0.25090
C955        C  0.87308887  0.49121756  0.42263658    -0.22910
C956        C  0.87679962  0.46377768  0.40111602     0.19990
F957        F  0.90808750  0.44073642  0.39471891    -0.12870
F958        F  0.85269455  0.43315223  0.36526219    -0.15230
F959        F  0.83666513  0.04206022  0.44910310    -0.15230
F960        F  0.78114476  0.03591142  0.41816924    -0.12870
C961        C  0.65410756  0.00974273  0.43678265     0.25150
C962        C  0.63470392  0.49009319  0.42639348    -0.22960
C963        C  0.64672737  0.46737933  0.39939982     0.20050
C964        C  0.67722037  0.46413075  0.38365907     0.25090
C965        C  0.69616312  0.48434429  0.39341619    -0.22910
C966        C  0.68425263  0.00715864  0.42027054     0.19990
F967        F  0.70124241  0.02773018  0.43011819    -0.12870
F968        F  0.64414138  0.03144878  0.46302451    -0.15230
F969        F  0.68842679  0.44056762  0.35905879    -0.15230
F970        F  0.62895887  0.44819382  0.38771575    -0.12870
C971        C  0.85555096  0.01402995  0.10130987     0.25150
C972        C  0.87149182  0.49130099  0.07532986    -0.22960
C973        C  0.85783215  0.46613574  0.06610557     0.20050
C974        C  0.82956798  0.46366770  0.08250607     0.25090
C975        C  0.81421083  0.48602310  0.10854951    -0.22910
C976        C  0.82731399  0.01127427  0.11776782     0.19990
F977        F  0.81235378  0.03370134  0.14242819    -0.12870
F978        F  0.86714725  0.03897416  0.11101249    -0.15230
F979        F  0.81764802  0.43874784  0.07342220    -0.15230
F980        F  0.87171823  0.44355039  0.04124325    -0.12870
C981        C  0.66579210  0.47247903  0.05840999     0.25150
C982        C  0.63438093  0.49178808  0.07234430    -0.22960
C983        C  0.63332016  0.00808453  0.10303221     0.20050
C984        C  0.66342691  0.50516143  0.11976804     0.25090
C985        C  0.69519690  0.48515875  0.10636666    -0.22910
C986        C  0.69601658  0.46897135  0.07533933     0.19990
F987        F  0.72592882  0.44880388  0.06190935    -0.12870
F988        F  0.66708406  0.45645770  0.02870895    -0.15230
F989        F  0.66143448  0.02232119  0.14888954    -0.15230
F990        F  0.60303555  0.02652196  0.11697320    -0.12870
O991        O  0.59105448  0.46963354  0.56372772    -0.73740
O992        O  0.58897381  0.01729495  0.53527676    -0.52650
C993        C  0.60273738  0.49307927  0.55599527     0.79990
O994        O  0.52434726  0.40526876  0.93608720    -0.58340
O995        O  0.97633271  0.40850150  0.96421845    -0.51370
C996        C  0.00042960  0.39409067  0.94354996     0.72000
O997        O  0.59032302  0.46911265  0.93672031    -0.72740
O998        O  0.58897390  0.01691063  0.96426188    -0.53470
C999        C  0.60261415  0.49236329  0.94363327     0.78000
O1000       O  0.52330772  0.40746900  0.56569017    -0.58050
O1001       O  0.97659563  0.40908233  0.53596295    -0.51160
C1002       C  0.99987888  0.39564532  0.55783283     0.74600
Zr1003     Zr  0.54214242  0.45381064  0.54978635     2.54710
O1004       O  0.59200137  0.40212514  0.55141697    -0.78610
O1005       O  0.53919636  0.45790543  0.61033976    -0.92030
Zr1006     Zr  0.54184678  0.45316031  0.95040706     2.64680
O1007       O  0.59316223  0.40293382  0.94722418    -0.96980
O1008       O  0.53702509  0.45696292  0.88992887    -0.79040
O1009       O  0.56168738  0.47086753  0.00002406    -0.82400
O1010       O  0.52450075  0.43407183  0.00014716    -2.17110
O1011       O  0.91333130  0.01726961  0.56614522    -0.65790
O1012       O  0.91578718  0.47065284  0.53580528    -0.50360
C1013       C  0.90213905  0.99332063  0.55805162     0.72980
O1014       O  0.97702858  0.08511729  0.93726136    -0.58700
O1015       O  0.52725658  0.07941173  0.96316459    -0.50680
C1016       C  0.50241155  0.09469158  0.94352110     0.74780
O1017       O  0.91273958  0.01826001  0.93388985    -0.70090
O1018       O  0.91690650  0.46956164  0.96166070    -0.48770
C1019       C  0.90280758  0.99326649  0.94056058     0.76160
O1020       O  0.97693532  0.08538485  0.56249229    -0.65420
O1021       O  0.52693345  0.07984819  0.53650584    -0.52620
C1022       C  0.50211517  0.09514872  0.55612665     0.74550
Zr1023     Zr  0.95962740  0.03686015  0.54937560     2.77540
O1024       O  0.90831864  0.08726246  0.54931722    -0.96170
O1025       O  0.96325620  0.03606165  0.60994699    -0.76990
Zr1026     Zr  0.95968684  0.03675313  0.95046850     2.70070
O1027       O  0.90826543  0.08696769  0.95043208    -0.78240
O1028       O  0.96351174  0.03536869  0.88992780    -0.97330
Zr1029     Zr  0.53910967  0.03115879  0.99986886     2.21500
Zr1030     Zr  0.96422465  0.45804278  0.49972689     2.11130
O1031       O  0.94031696  0.01861288  0.49978731    -2.46010
O1032       O  0.97859205  0.05548614  0.50001033    -0.78030
O1033       O  0.98197945  0.47658193  0.55029272    -0.70230
O1034       O  0.51998316  0.01339756  0.94950103    -2.31190
O1035       O  0.52002755  0.01399188  0.55034069    -2.27390
O1036       O  0.98178109  0.47637478  0.94934868    -0.71990
H1037       H  0.53239788  0.40954880  0.00032259     0.80010
H1038       H  0.52847232  0.02160978  0.93027110     0.81090
H1039       H  0.91579551  0.02637520  0.49968957     0.83320
H1040       H  0.52853931  0.02246789  0.56953597     0.80930
H1041       H  0.54306342  0.47697485  0.88404727     0.43960
H1042       H  0.96437862  0.01227122  0.88366061     0.42930
H1043       H  0.90911866  0.09847564  0.97182670     0.42610
H1044       H  0.89202946  0.08119380  0.53504437     0.40540
H1045       H  0.96855152  0.01192159  0.61594285     0.43680
H1046       H  0.54286262  0.47935554  0.61577807     0.38460
H1047       H  0.60228629  0.40075929  0.52905668     0.44580
H1048       H  0.58926478  0.38655189  0.96289183     0.40990
H1049       H  0.89913341  0.08843152  0.57215635     0.45910
H1050       H  0.56014419  0.43981561  0.61810259     0.44630
H1051       H  0.59237379  0.39325212  0.92482522     0.44770
H1052       H  0.94085859  0.05056460  0.88231539     0.45130
C1053       C  0.50234473  0.27354639  0.62589000     0.04680
C1054       C  0.50138604  0.24508997  0.60813343    -0.11470
C1055       C  0.50383301  0.21517439  0.62503396     0.02180
C1056       C  0.50647417  0.21416981  0.65992760    -0.10000
C1057       C  0.50657399  0.24279315  0.67805818     0.04670
C1058       C  0.50490998  0.27230222  0.66077404    -0.09420
H1059       H  0.49966565  0.24593160  0.58116717     0.10270
H1060       H  0.50822335  0.19109804  0.67298842     0.07790
H1061       H  0.50489725  0.29460058  0.67444895     0.07640
C1062       C  0.50437883  0.27195162  0.87515561     0.04680
C1063       C  0.50401504  0.24325188  0.89248216    -0.11470
C1064       C  0.50584887  0.21368191  0.87508356     0.02180
C1065       C  0.50790785  0.21306763  0.84016564    -0.10000
C1066       C  0.50763602  0.24195912  0.82249319     0.04670
C1067       C  0.50605865  0.27133407  0.84026647    -0.09420
H1068       H  0.50261788  0.24383788  0.91946375     0.10270
H1069       H  0.50935457  0.19016737  0.82674926     0.07790
H1070       H  0.50560476  0.29389851  0.82700905     0.07640
C1071       C  0.78469910  0.48269605  0.62616126     0.04680
C1072       C  0.75527470  0.48452527  0.60835816    -0.11470
C1073       C  0.72712676  0.48128851  0.62482971     0.02180
C1074       C  0.72903155  0.47579405  0.65942020    -0.10000
C1075       C  0.75780299  0.47512708  0.67764572     0.04670
C1076       C  0.78574211  0.47817571  0.66081646    -0.09420
H1077       H  0.75403251  0.48951304  0.58182782     0.10270
H1078       H  0.70780941  0.47264662  0.67244344     0.07790
H1079       H  0.80803307  0.47773914  0.67474932     0.07640
C1080       C  0.78590656  0.48135532  0.87379640     0.04680
C1081       C  0.75681600  0.48255081  0.89163899    -0.11470
C1082       C  0.72750729  0.48221493  0.87482776     0.02180
C1083       C  0.72802652  0.48013557  0.83981417    -0.10000
C1084       C  0.75728008  0.47778763  0.82177213     0.04670
C1085       C  0.78608182  0.47854291  0.83894304    -0.09420
H1086       H  0.75722676  0.48350164  0.91860920     0.10270
H1087       H  0.70547937  0.48060574  0.82637834     0.07790
H1088       H  0.80827159  0.47818387  0.82506579     0.07640
C1089       C  0.73094799  0.49897631  0.73186769     0.25150
C1090       C  0.75733309  0.47442755  0.71452078    -0.22960
C1091       C  0.78356243  0.45046731  0.73261736     0.20050
C1092       C  0.78343978  0.45123840  0.76753114     0.25090
C1093       C  0.75718281  0.47612783  0.78484712    -0.22910
C1094       C  0.73091795  0.49989035  0.76663045     0.19990
F1095       F  0.70581019  0.02489711  0.78247259    -0.12870
F1096       F  0.70579223  0.02302238  0.71506961    -0.15230
F1097       F  0.80867581  0.42737560  0.78443094    -0.15230
F1098       F  0.80900826  0.42607496  0.71648772    -0.12870
C1099       C  0.53087350  0.25271644  0.73287425     0.25150
C1100       C  0.50741221  0.24214490  0.71504499    -0.22960
C1101       C  0.98424551  0.23138164  0.73280590     0.20050
C1102       C  0.98449078  0.23119071  0.76763801     0.25090
C1103       C  0.50790464  0.24176188  0.78550155    -0.22910
C1104       C  0.53110903  0.25253716  0.76778086     0.19990
F1105       F  0.55450906  0.26220941  0.78426561    -0.12870
F1106       F  0.55406835  0.26253428  0.71648705    -0.15230
F1107       F  0.96102828  0.22170504  0.78394380    -0.15230
F1108       F  0.96054931  0.22207506  0.71641869    -0.12870
C1109       C  0.97579687  0.15607006  0.92882449     0.25150
C1110       C  0.50338218  0.12529510  0.92654766    -0.22960
C1111       C  0.53206654  0.12388172  0.90789264     0.20050
C1112       C  0.53283089  0.15266557  0.89106939     0.25090
C1113       C  0.50525372  0.18345294  0.89330944    -0.22910
C1114       C  0.97689369  0.18508273  0.91262316     0.19990
F1115       F  0.95000901  0.21461554  0.91520490    -0.12870
F1116       F  0.94811900  0.15813843  0.94725490    -0.15230
F1117       F  0.56063041  0.15063330  0.87285194    -0.15230
F1118       F  0.55896895  0.09435725  0.90529074    -0.12870
C1119       C  0.97188259  0.32791343  0.90096941     0.25150
C1120       C  0.50317406  0.30266610  0.89355797    -0.22960
C1121       C  0.53341076  0.30682488  0.90368896     0.20050
C1122       C  0.53246750  0.33644129  0.92026019     0.25090
C1123       C  0.50114812  0.36222583  0.92726275    -0.22910
C1124       C  0.97081765  0.35732483  0.91810334     0.19990
F1125       F  0.94018045  0.38126314  0.92504429    -0.12870
F1126       F  0.94241485  0.32413546  0.89132766    -0.15230
F1127       F  0.56217376  0.33955985  0.93012090    -0.15230
F1128       F  0.56384808  0.28216506  0.89743756    -0.12870
C1129       C  0.53091437  0.12489901  0.59259225     0.25150
C1130       C  0.50280307  0.12606691  0.57295352    -0.22960
C1131       C  0.97540801  0.15686390  0.56969018     0.20050
C1132       C  0.97607496  0.18614048  0.58598967     0.25090
C1133       C  0.50380893  0.18476852  0.60637694    -0.22910
C1134       C  0.53126029  0.15394143  0.60948278     0.19990
F1135       F  0.55853049  0.15208049  0.62867913    -0.12870
F1136       F  0.55761936  0.09536338  0.59611941    -0.15230
F1137       F  0.94930168  0.21563615  0.58254474    -0.15230
F1138       F  0.94829058  0.15865092  0.55030051    -0.12870
C1139       C  0.52981216  0.31476780  0.60947124     0.25150
C1140       C  0.50159182  0.30441540  0.60803565    -0.22960
C1141       C  0.97279571  0.32373569  0.58979891     0.20050
C1142       C  0.97199342  0.35344260  0.57357232     0.25090
C1143       C  0.50028837  0.36415477  0.57501962    -0.22910
C1144       C  0.52934882  0.34413045  0.59303437     0.19990
F1145       F  0.55774389  0.35246661  0.59444943    -0.12870
F1146       F  0.55820203  0.29597077  0.62637595    -0.15230
F1147       F  0.94326021  0.37188754  0.55698219    -0.15230
F1148       F  0.94512385  0.31420978  0.58837013    -0.12870
C1149       C  0.84841868  0.46027163  0.88555691     0.25150
C1150       C  0.81582998  0.48428577  0.89129196    -0.22960
C1151       C  0.81219943  0.01193861  0.91274702     0.20050
C1152       C  0.84070299  0.01543210  0.92821731     0.25090
C1153       C  0.87308887  0.49121756  0.92263658    -0.22910
C1154       C  0.87679962  0.46377769  0.90111600     0.19990
F1155       F  0.90808750  0.44073645  0.89471888    -0.12870
F1156       F  0.85269456  0.43315225  0.86526217    -0.15230
F1157       F  0.83666513  0.04206021  0.94910311    -0.15230
F1158       F  0.78114475  0.03591142  0.91816925    -0.12870
C1159       C  0.65410755  0.00974273  0.93678265     0.25150
C1160       C  0.63470392  0.49009319  0.92639349    -0.22960
C1161       C  0.64672736  0.46737934  0.89939981     0.20050
C1162       C  0.67722036  0.46413076  0.88365906     0.25090
C1163       C  0.69616312  0.48434429  0.89341620    -0.22910
C1164       C  0.68425262  0.00715865  0.92027054     0.19990
F1165       F  0.70124239  0.02773020  0.93011818    -0.12870
F1166       F  0.64414137  0.03144879  0.96302450    -0.15230
F1167       F  0.68842678  0.44056764  0.85905878    -0.15230
F1168       F  0.62895885  0.44819385  0.88771574    -0.12870
C1169       C  0.85555095  0.01402996  0.60130986     0.25150
C1170       C  0.87149182  0.49130099  0.57532986    -0.22960
C1171       C  0.85783216  0.46613573  0.56610559     0.20050
C1172       C  0.82956799  0.46366769  0.58250608     0.25090
C1173       C  0.81421083  0.48602310  0.60854951    -0.22910
C1174       C  0.82731398  0.01127427  0.61776781     0.19990
F1175       F  0.81235376  0.03370136  0.64242816    -0.12870
F1176       F  0.86714722  0.03897419  0.61101246    -0.15230
F1177       F  0.81764803  0.43874782  0.57342222    -0.15230
F1178       F  0.87171825  0.44355037  0.54124327    -0.12870
C1179       C  0.66579210  0.47247904  0.55840998     0.25150
C1180       C  0.63438093  0.49178809  0.57234430    -0.22960
C1181       C  0.63332018  0.00808453  0.60303220     0.20050
C1182       C  0.66342691  0.50516142  0.61976804     0.25090
C1183       C  0.69519690  0.48515875  0.60636666    -0.22910
C1184       C  0.69601658  0.46897135  0.57533933     0.19990
F1185       F  0.72592882  0.44880390  0.56190934    -0.12870
F1186       F  0.66708407  0.45645771  0.52870895    -0.15230
F1187       F  0.66143450  0.02232120  0.64888953    -0.15230
F1188       F  0.60303556  0.02652198  0.61697318    -0.12870
O1189       O  0.59105449  0.96963352  0.06372772    -0.73740
O1190       O  0.58897380  0.51729496  0.03527676    -0.52650
C1191       C  0.60273739  0.99307925  0.05599527     0.79990
O1192       O  0.52434725  0.90526877  0.43608718    -0.58340
O1193       O  0.97633270  0.90850150  0.46421844    -0.51370
C1194       C  0.00042959  0.89409068  0.44354995     0.72000
O1195       O  0.59032303  0.96911265  0.43672031    -0.72740
O1196       O  0.58897390  0.51691064  0.46426188    -0.53470
C1197       C  0.60261415  0.99236329  0.44363327     0.78000
O1198       O  0.52330772  0.90746899  0.06569016    -0.58050
O1199       O  0.97659564  0.90908232  0.03596295    -0.51160
C1200       C  0.99987888  0.89564531  0.05783283     0.74600
Zr1201     Zr  0.54214243  0.95381063  0.04978634     2.54710
O1202       O  0.59200137  0.90212512  0.05141694    -0.78610
O1203       O  0.53919638  0.95790541  0.11033976    -0.92030
Zr1204     Zr  0.54184678  0.95316032  0.45040705     2.64680
O1205       O  0.59316222  0.90293382  0.44722415    -0.96980
O1206       O  0.53702507  0.95696295  0.38992886    -0.79040
O1207       O  0.56168739  0.97086753  0.50002405    -0.82400
O1208       O  0.52450076  0.93407183  0.50014714    -2.17110
O1209       O  0.91333129  0.51726962  0.06614520    -0.65790
O1210       O  0.91578718  0.97065283  0.03580528    -0.50360
C1211       C  0.90213904  0.49332064  0.05805161     0.72980
O1212       O  0.97702857  0.58511729  0.43726135    -0.58700
O1213       O  0.52725658  0.57941174  0.46316458    -0.50680
C1214       C  0.50241156  0.59469158  0.44352109     0.74780
O1215       O  0.91273958  0.51826001  0.43388985    -0.70090
O1216       O  0.91690649  0.96956164  0.46166070    -0.48770
C1217       C  0.90280758  0.49326650  0.44056058     0.76160
O1218       O  0.97693532  0.58538485  0.06249229    -0.65420
O1219       O  0.52693343  0.57984820  0.03650584    -0.52620
C1220       C  0.50211515  0.59514873  0.05612665     0.74550
Zr1221     Zr  0.95962739  0.53686016  0.04937559     2.77540
O1222       O  0.90831863  0.58726247  0.04931718    -0.96170
O1223       O  0.96325617  0.53606167  0.10994698    -0.76990
Zr1224     Zr  0.95968683  0.53675314  0.45046850     2.70070
O1225       O  0.90826542  0.58696770  0.45043207    -0.78240
O1226       O  0.96351174  0.53536870  0.38992780    -0.97330
Zr1227     Zr  0.53910967  0.53115879  0.49986886     2.21500
Zr1228     Zr  0.96422465  0.95804277  0.99972689     2.11130
O1229       O  0.94031696  0.51861288  0.99978731    -2.46010
O1230       O  0.97859204  0.55548614  0.00001032    -0.78030
O1231       O  0.98197945  0.97658192  0.05029272    -0.70230
O1232       O  0.51998316  0.51339756  0.44950103    -2.31190
O1233       O  0.52002753  0.51399189  0.05034069    -2.27390
O1234       O  0.98178108  0.97637479  0.44934867    -0.71990
H1235       H  0.53239788  0.90954879  0.50032257     0.80010
H1236       H  0.52847233  0.52160978  0.43027110     0.81090
H1237       H  0.91579551  0.52637519  0.99968956     0.83320
H1238       H  0.52853930  0.52246790  0.06953597     0.80930
H1239       H  0.54306343  0.97697486  0.38404726     0.43960
H1240       H  0.96437862  0.51227122  0.38366061     0.42930
H1241       H  0.90911865  0.59847564  0.47182670     0.42610
H1242       H  0.89202945  0.58119380  0.03504433     0.40540
H1243       H  0.96855147  0.51192162  0.11594285     0.43680
H1244       H  0.54286264  0.97935552  0.11577807     0.38460
H1245       H  0.60228628  0.90075928  0.02905666     0.44580
H1246       H  0.58926478  0.88655189  0.46289180     0.40990
H1247       H  0.89913340  0.58843154  0.07215631     0.45910
H1248       H  0.56014421  0.93981559  0.11810258     0.44630
H1249       H  0.59237378  0.89325213  0.42482518     0.44770
H1250       H  0.94085859  0.55056461  0.38231539     0.45130
C1251       C  0.50234474  0.77354638  0.12589000     0.04680
C1252       C  0.50138604  0.74508996  0.10813343    -0.11470
C1253       C  0.50383301  0.71517439  0.12503396     0.02180
C1254       C  0.50647418  0.71416981  0.15992760    -0.10000
C1255       C  0.50657401  0.74279314  0.17805818     0.04670
C1256       C  0.50490999  0.77230221  0.16077404    -0.09420
H1257       H  0.49966564  0.74593160  0.08116717     0.10270
H1258       H  0.50822336  0.69109803  0.17298842     0.07790
H1259       H  0.50489727  0.79460057  0.17444895     0.07640
C1260       C  0.50437884  0.77195162  0.37515561     0.04680
C1261       C  0.50401504  0.74325188  0.39248216    -0.11470
C1262       C  0.50584888  0.71368191  0.37508356     0.02180
C1263       C  0.50790787  0.71306763  0.34016564    -0.10000
C1264       C  0.50763604  0.74195912  0.32249318     0.04670
C1265       C  0.50605867  0.77133407  0.34026646    -0.09420
H1266       H  0.50261788  0.74383788  0.41946375     0.10270
H1267       H  0.50935459  0.69016736  0.32674926     0.07790
H1268       H  0.50560478  0.79389850  0.32700905     0.07640
C1269       C  0.78469909  0.98269605  0.12616126     0.04680
C1270       C  0.75527469  0.98452527  0.10835815    -0.11470
C1271       C  0.72712676  0.98128850  0.12482971     0.02180
C1272       C  0.72903155  0.97579404  0.15942020    -0.10000
C1273       C  0.75780299  0.97512707  0.17764572     0.04670
C1274       C  0.78574211  0.97817570  0.16081646    -0.09420
H1275       H  0.75403251  0.98951304  0.08182782     0.10270
H1276       H  0.70780941  0.97264661  0.17244343     0.07790
H1277       H  0.80803307  0.97773913  0.17474932     0.07640
C1278       C  0.78590657  0.98135531  0.37379639     0.04680
C1279       C  0.75681601  0.98255080  0.39163899    -0.11470
C1280       C  0.72750731  0.98221491  0.37482776     0.02180
C1281       C  0.72802653  0.98013555  0.33981417    -0.10000
C1282       C  0.75728009  0.97778761  0.32177213     0.04670
C1283       C  0.78608183  0.97854290  0.33894304    -0.09420
H1284       H  0.75722677  0.98350164  0.41860920     0.10270
H1285       H  0.70547939  0.98060572  0.32637834     0.07790
H1286       H  0.80827160  0.97818386  0.32506579     0.07640
C1287       C  0.73094799  0.99897629  0.23186769     0.25150
C1288       C  0.75733309  0.97442754  0.21452077    -0.22960
C1289       C  0.78356244  0.95046730  0.23261736     0.20050
C1290       C  0.78343979  0.95123839  0.26753114     0.25090
C1291       C  0.75718282  0.97612781  0.28484712    -0.22910
C1292       C  0.73091795  0.99989033  0.26663045     0.19990
F1293       F  0.70581018  0.52489710  0.28247258    -0.12870
F1294       F  0.70579222  0.52302237  0.21506961    -0.15230
F1295       F  0.80867583  0.92737559  0.28443093    -0.15230
F1296       F  0.80900827  0.92607496  0.21648771    -0.12870
C1297       C  0.53087352  0.75271643  0.23287425     0.25150
C1298       C  0.50741223  0.74214490  0.21504499    -0.22960
C1299       C  0.98424551  0.73138164  0.23280589     0.20050
C1300       C  0.98449077  0.73119071  0.26763801     0.25090
C1301       C  0.50790466  0.74176187  0.28550154    -0.22910
C1302       C  0.53110905  0.75253716  0.26778086     0.19990
F1303       F  0.55450908  0.76220941  0.28426560    -0.12870
F1304       F  0.55406837  0.76253427  0.21648705    -0.15230
F1305       F  0.96102827  0.72170505  0.28394379    -0.15230
F1306       F  0.96054930  0.72207507  0.21641868    -0.12870
C1307       C  0.97579685  0.65607007  0.42882447     0.25150
C1308       C  0.50338219  0.62529510  0.42654765    -0.22960
C1309       C  0.53206655  0.62388173  0.40789265     0.20050
C1310       C  0.53283091  0.65266557  0.39106940     0.25090
C1311       C  0.50525372  0.68345294  0.39330944    -0.22910
C1312       C  0.97689367  0.68508274  0.41262314     0.19990
F1313       F  0.95000899  0.71461554  0.41520486    -0.12870
F1314       F  0.94811897  0.65813843  0.44725487    -0.15230
F1315       F  0.56063043  0.65063331  0.37285196    -0.15230
F1316       F  0.55896897  0.59435726  0.40529076    -0.12870
C1317       C  0.97188258  0.82791342  0.40096944     0.25150
C1318       C  0.50317407  0.80266610  0.39355796    -0.22960
C1319       C  0.53341076  0.80682490  0.40368893     0.20050
C1320       C  0.53246751  0.83644131  0.42026016     0.25090
C1321       C  0.50114812  0.86222583  0.42726275    -0.22910
C1322       C  0.97081764  0.85732482  0.41810336     0.19990
F1323       F  0.94018044  0.88126312  0.42504434    -0.12870
F1324       F  0.94241483  0.82413544  0.39132772    -0.15230
F1325       F  0.56217377  0.83955987  0.43012085    -0.15230
F1326       F  0.56384809  0.78216509  0.39743751    -0.12870
C1327       C  0.53091437  0.62489901  0.09259223     0.25150
C1328       C  0.50280306  0.62606691  0.07295352    -0.22960
C1329       C  0.97540801  0.65686390  0.06969019     0.20050
C1330       C  0.97607496  0.68614047  0.08598968     0.25090
C1331       C  0.50380892  0.68476852  0.10637694    -0.22910
C1332       C  0.53126029  0.65394143  0.10948277     0.19990
F1333       F  0.55853050  0.65208049  0.12867910    -0.12870
F1334       F  0.55761937  0.59536339  0.09611939    -0.15230
F1335       F  0.94930168  0.71563614  0.08254476    -0.15230
F1336       F  0.94829058  0.65865092  0.05030053    -0.12870
C1337       C  0.52981216  0.81476780  0.10947123     0.25150
C1338       C  0.50159182  0.80441539  0.10803565    -0.22960
C1339       C  0.97279572  0.82373567  0.08979890     0.20050
C1340       C  0.97199343  0.85344258  0.07357231     0.25090
C1341       C  0.50028836  0.86415476  0.07501962    -0.22910
C1342       C  0.52934882  0.84413045  0.09303436     0.19990
F1343       F  0.55774388  0.85246660  0.09444942    -0.12870
F1344       F  0.55820203  0.79597077  0.12637594    -0.15230
F1345       F  0.94326022  0.87188751  0.05698217    -0.15230
F1346       F  0.94512386  0.81420976  0.08837012    -0.12870
C1347       C  0.84841869  0.96027162  0.38555692     0.25150
C1348       C  0.81582999  0.98428577  0.39129196    -0.22960
C1349       C  0.81219943  0.51193861  0.41274702     0.20050
C1350       C  0.84070299  0.51543210  0.42821731     0.25090
C1351       C  0.87308887  0.99121756  0.42263657    -0.22910
C1352       C  0.87679962  0.96377768  0.40111602     0.19990
F1353       F  0.90808750  0.94073643  0.39471891    -0.12870
F1354       F  0.85269456  0.93315223  0.36526219    -0.15230
F1355       F  0.83666513  0.54206022  0.44910311    -0.15230
F1356       F  0.78114476  0.53591142  0.41816924    -0.12870
C1357       C  0.65410755  0.50974274  0.43678265     0.25150
C1358       C  0.63470393  0.99009318  0.42639348    -0.22960
C1359       C  0.64672738  0.96737932  0.39939982     0.20050
C1360       C  0.67722038  0.96413074  0.38365907     0.25090
C1361       C  0.69616314  0.98434427  0.39341620    -0.22910
C1362       C  0.68425262  0.50715865  0.42027053     0.19990
F1363       F  0.70124239  0.52773020  0.43011818    -0.12870
F1364       F  0.64414137  0.53144880  0.46302450    -0.15230
F1365       F  0.68842680  0.94056761  0.35905880    -0.15230
F1366       F  0.62895888  0.94819381  0.38771576    -0.12870
C1367       C  0.85555094  0.51402996  0.10130985     0.25150
C1368       C  0.87149182  0.99130098  0.07532986    -0.22960
C1369       C  0.85783214  0.96613575  0.06610557     0.20050
C1370       C  0.82956797  0.96366771  0.08250606     0.25090
C1371       C  0.81421083  0.98602310  0.10854951    -0.22910
C1372       C  0.82731398  0.51127428  0.11776780     0.19990
F1373       F  0.81235376  0.53370137  0.14242817    -0.12870
F1374       F  0.86714722  0.53897419  0.11101246    -0.15230
F1375       F  0.81764799  0.93874786  0.07342218    -0.15230
F1376       F  0.87171821  0.94355041  0.04124323    -0.12870
C1377       C  0.66579210  0.97247902  0.05840999     0.25150
C1378       C  0.63438094  0.99178807  0.07234430    -0.22960
C1379       C  0.63332016  0.50808454  0.10303221     0.20050
C1380       C  0.66342691  0.00516141  0.11976804     0.25090
C1381       C  0.69519690  0.98515874  0.10636666    -0.22910
C1382       C  0.69601659  0.96897133  0.07533934     0.19990
F1383       F  0.72592883  0.94880387  0.06190935    -0.12870
F1384       F  0.66708407  0.95645768  0.02870896    -0.15230
F1385       F  0.66143449  0.52232120  0.14888954    -0.15230
F1386       F  0.60303555  0.52652198  0.11697320    -0.12870
O1387       O  0.59105450  0.96963351  0.56372771    -0.73740
O1388       O  0.58897380  0.51729496  0.53527676    -0.52650
C1389       C  0.60273740  0.99307925  0.55599526     0.79990
O1390       O  0.52434725  0.90526876  0.93608719    -0.58340
O1391       O  0.97633270  0.90850149  0.96421845    -0.51370
C1392       C  0.00042960  0.89409067  0.94354996     0.72000
O1393       O  0.59032302  0.96911265  0.93672031    -0.72740
O1394       O  0.58897390  0.51691064  0.96426188    -0.53470
C1395       C  0.60261415  0.99236328  0.94363327     0.78000
O1396       O  0.52330773  0.90746899  0.56569016    -0.58050
O1397       O  0.97659563  0.90908233  0.53596294    -0.51160
C1398       C  0.99987888  0.89564532  0.55783283     0.74600
Zr1399     Zr  0.54214244  0.95381063  0.54978634     2.54710
O1400       O  0.59200138  0.90212512  0.55141693    -0.78610
O1401       O  0.53919639  0.95790541  0.61033975    -0.92030
Zr1402     Zr  0.54184677  0.95316031  0.95040705     2.64680
O1403       O  0.59316222  0.90293382  0.94722416    -0.96980
O1404       O  0.53702507  0.95696294  0.88992886    -0.79040
O1405       O  0.56168738  0.97086753  0.00002406    -0.82400
O1406       O  0.52450075  0.93407183  0.00014715    -2.17110
O1407       O  0.91333129  0.51726962  0.56614521    -0.65790
O1408       O  0.91578718  0.97065284  0.53580528    -0.50360
C1409       C  0.90213904  0.49332064  0.55805162     0.72980
O1410       O  0.97702859  0.58511728  0.93726135    -0.58700
O1411       O  0.52725658  0.57941174  0.96316458    -0.50680
C1412       C  0.50241155  0.59469158  0.94352109     0.74780
O1413       O  0.91273959  0.51826001  0.93388985    -0.70090
O1414       O  0.91690649  0.96956163  0.96166070    -0.48770
C1415       C  0.90280759  0.49326649  0.94056058     0.76160
O1416       O  0.97693531  0.58538486  0.56249228    -0.65420
O1417       O  0.52693344  0.57984820  0.53650584    -0.52620
C1418       C  0.50211516  0.59514873  0.55612664     0.74550
Zr1419     Zr  0.95962739  0.53686016  0.54937559     2.77540
O1420       O  0.90831863  0.58726247  0.54931720    -0.96170
O1421       O  0.96325618  0.53606167  0.60994699    -0.76990
Zr1422     Zr  0.95968684  0.53675313  0.95046849     2.70070
O1423       O  0.90826543  0.58696769  0.95043207    -0.78240
O1424       O  0.96351175  0.53536868  0.88992779    -0.97330
Zr1425     Zr  0.53910967  0.53115879  0.99986886     2.21500
Zr1426     Zr  0.96422465  0.95804278  0.49972689     2.11130
O1427       O  0.94031695  0.51861288  0.49978731    -2.46010
O1428       O  0.97859204  0.55548614  0.50001032    -0.78030
O1429       O  0.98197946  0.97658192  0.55029271    -0.70230
O1430       O  0.51998316  0.51339756  0.94950103    -2.31190
O1431       O  0.52002753  0.51399189  0.55034069    -2.27390
O1432       O  0.98178108  0.97637478  0.94934868    -0.71990
H1433       H  0.53239787  0.90954879  0.00032258     0.80010
H1434       H  0.52847233  0.52160977  0.93027110     0.81090
H1435       H  0.91579550  0.52637520  0.49968956     0.83320
H1436       H  0.52853930  0.52246790  0.56953597     0.80930
H1437       H  0.54306343  0.97697485  0.88404726     0.43960
H1438       H  0.96437862  0.51227121  0.88366061     0.42930
H1439       H  0.90911866  0.59847564  0.97182669     0.42610
H1440       H  0.89202945  0.58119380  0.53504435     0.40540
H1441       H  0.96855149  0.51192162  0.61594285     0.43680
H1442       H  0.54286265  0.97935552  0.61577806     0.38460
H1443       H  0.60228629  0.90075928  0.52905665     0.44580
H1444       H  0.58926478  0.88655188  0.96289181     0.40990
H1445       H  0.89913340  0.58843154  0.57215632     0.45910
H1446       H  0.56014423  0.93981558  0.61810257     0.44630
H1447       H  0.59237377  0.89325212  0.92482519     0.44770
H1448       H  0.94085861  0.55056460  0.88231538     0.45130
C1449       C  0.50234473  0.77354639  0.62589000     0.04680
C1450       C  0.50138604  0.74508997  0.60813343    -0.11470
C1451       C  0.50383300  0.71517439  0.62503395     0.02180
C1452       C  0.50647417  0.71416982  0.65992760    -0.10000
C1453       C  0.50657399  0.74279315  0.67805818     0.04670
C1454       C  0.50490998  0.77230222  0.66077403    -0.09420
H1455       H  0.49966565  0.74593160  0.58116717     0.10270
H1456       H  0.50822334  0.69109804  0.67298842     0.07790
H1457       H  0.50489726  0.79460058  0.67444895     0.07640
C1458       C  0.50437883  0.77195161  0.87515560     0.04680
C1459       C  0.50401505  0.74325187  0.89248216    -0.11470
C1460       C  0.50584887  0.71368191  0.87508355     0.02180
C1461       C  0.50790786  0.71306763  0.84016563    -0.10000
C1462       C  0.50763602  0.74195912  0.82249318     0.04670
C1463       C  0.50605865  0.77133407  0.84026646    -0.09420
H1464       H  0.50261788  0.74383787  0.91946375     0.10270
H1465       H  0.50935457  0.69016737  0.82674925     0.07790
H1466       H  0.50560477  0.79389851  0.82700905     0.07640
C1467       C  0.78469911  0.98269603  0.62616127     0.04680
C1468       C  0.75527471  0.98452525  0.60835816    -0.11470
C1469       C  0.72712677  0.98128849  0.62482971     0.02180
C1470       C  0.72903156  0.97579404  0.65942020    -0.10000
C1471       C  0.75780299  0.97512707  0.67764573     0.04670
C1472       C  0.78574212  0.97817570  0.66081646    -0.09420
H1473       H  0.75403253  0.98951301  0.58182782     0.10270
H1474       H  0.70780942  0.97264661  0.67244344     0.07790
H1475       H  0.80803307  0.97773913  0.67474933     0.07640
C1476       C  0.78590655  0.98135531  0.87379640     0.04680
C1477       C  0.75681600  0.98255081  0.89163899    -0.11470
C1478       C  0.72750729  0.98221492  0.87482777     0.02180
C1479       C  0.72802652  0.98013556  0.83981418    -0.10000
C1480       C  0.75728008  0.97778762  0.82177214     0.04670
C1481       C  0.78608182  0.97854290  0.83894304    -0.09420
H1482       H  0.75722675  0.98350165  0.91860920     0.10270
H1483       H  0.70547937  0.98060573  0.82637834     0.07790
H1484       H  0.80827159  0.97818386  0.82506579     0.07640
C1485       C  0.73094800  0.99897630  0.73186769     0.25150
C1486       C  0.75733309  0.97442754  0.71452078    -0.22960
C1487       C  0.78356243  0.95046730  0.73261736     0.20050
C1488       C  0.78343977  0.95123838  0.76753115     0.25090
C1489       C  0.75718281  0.97612781  0.78484713    -0.22910
C1490       C  0.73091796  0.99989034  0.76663045     0.19990
F1491       F  0.70581018  0.52489711  0.78247258    -0.12870
F1492       F  0.70579222  0.52302238  0.71506961    -0.15230
F1493       F  0.80867581  0.92737558  0.78443094    -0.15230
F1494       F  0.80900826  0.92607494  0.71648772    -0.12870
C1495       C  0.53087350  0.75271643  0.73287424     0.25150
C1496       C  0.50741221  0.74214491  0.71504498    -0.22960
C1497       C  0.98424553  0.73138163  0.73280589     0.20050
C1498       C  0.98449079  0.73119070  0.76763801     0.25090
C1499       C  0.50790464  0.74176188  0.78550154    -0.22910
C1500       C  0.53110904  0.75253716  0.76778085     0.19990
F1501       F  0.55450907  0.76220940  0.78426560    -0.12870
F1502       F  0.55406836  0.76253427  0.71648704    -0.15230
F1503       F  0.96102830  0.72170503  0.78394379    -0.15230
F1504       F  0.96054932  0.72207506  0.71641868    -0.12870
C1505       C  0.97579687  0.65607006  0.92882447     0.25150
C1506       C  0.50338219  0.62529510  0.92654765    -0.22960
C1507       C  0.53206654  0.62388172  0.90789263     0.20050
C1508       C  0.53283090  0.65266557  0.89106938     0.25090
C1509       C  0.50525372  0.68345294  0.89330943    -0.22910
C1510       C  0.97689370  0.68508273  0.91262315     0.19990
F1511       F  0.95000902  0.71461554  0.91520487    -0.12870
F1512       F  0.94811900  0.65813843  0.94725488    -0.15230
F1513       F  0.56063042  0.65063329  0.87285193    -0.15230
F1514       F  0.55896895  0.59435725  0.90529073    -0.12870
C1515       C  0.97188259  0.82791341  0.90096943     0.25150
C1516       C  0.50317406  0.80266609  0.89355797    -0.22960
C1517       C  0.53341076  0.80682488  0.90368896     0.20050
C1518       C  0.53246750  0.83644129  0.92026019     0.25090
C1519       C  0.50114811  0.86222583  0.92726275    -0.22910
C1520       C  0.97081765  0.85732481  0.91810335     0.19990
F1521       F  0.94018045  0.88126311  0.92504433    -0.12870
F1522       F  0.94241485  0.82413543  0.89132770    -0.15230
F1523       F  0.56217375  0.83955985  0.93012090    -0.15230
F1524       F  0.56384808  0.78216507  0.89743756    -0.12870
C1525       C  0.53091436  0.62489901  0.59259224     0.25150
C1526       C  0.50280306  0.62606692  0.57295352    -0.22960
C1527       C  0.97540801  0.65686391  0.56969017     0.20050
C1528       C  0.97607496  0.68614048  0.58598966     0.25090
C1529       C  0.50380892  0.68476853  0.60637693    -0.22910
C1530       C  0.53126028  0.65394144  0.60948278     0.19990
F1531       F  0.55853049  0.65208049  0.62867912    -0.12870
F1532       F  0.55761935  0.59536339  0.59611941    -0.15230
F1533       F  0.94930168  0.71563616  0.58254473    -0.15230
F1534       F  0.94829058  0.65865093  0.55030051    -0.12870
C1535       C  0.52981217  0.81476780  0.60947122     0.25150
C1536       C  0.50159182  0.80441540  0.60803565    -0.22960
C1537       C  0.97279570  0.82373569  0.58979891     0.20050
C1538       C  0.97199342  0.85344260  0.57357232     0.25090
C1539       C  0.50028837  0.86415476  0.57501961    -0.22910
C1540       C  0.52934883  0.84413044  0.59303435     0.19990
F1541       F  0.55774390  0.85246659  0.59444940    -0.12870
F1542       F  0.55820204  0.79597076  0.62637593    -0.15230
F1543       F  0.94326021  0.87188754  0.55698219    -0.15230
F1544       F  0.94512384  0.81420979  0.58837014    -0.12870
C1545       C  0.84841868  0.96027162  0.88555692     0.25150
C1546       C  0.81582998  0.98428577  0.89129196    -0.22960
C1547       C  0.81219943  0.51193860  0.91274703     0.20050
C1548       C  0.84070299  0.51543209  0.92821732     0.25090
C1549       C  0.87308887  0.99121756  0.92263658    -0.22910
C1550       C  0.87679961  0.96377767  0.90111602     0.19990
F1551       F  0.90808749  0.94073642  0.89471891    -0.12870
F1552       F  0.85269455  0.93315223  0.86526219    -0.15230
F1553       F  0.83666513  0.54206020  0.94910314    -0.15230
F1554       F  0.78114475  0.53591141  0.91816927    -0.12870
C1555       C  0.65410756  0.50974273  0.93678266     0.25150
C1556       C  0.63470392  0.99009318  0.92639349    -0.22960
C1557       C  0.64672738  0.96737932  0.89939983     0.20050
C1558       C  0.67722037  0.96413074  0.88365908     0.25090
C1559       C  0.69616312  0.98434428  0.89341620    -0.22910
C1560       C  0.68425263  0.50715864  0.92027055     0.19990
F1561       F  0.70124241  0.52773018  0.93011820    -0.12870
F1562       F  0.64414139  0.53144878  0.96302452    -0.15230
F1563       F  0.68842680  0.94056761  0.85905880    -0.15230
F1564       F  0.62895888  0.94819380  0.88771577    -0.12870
C1565       C  0.85555094  0.51402997  0.60130985     0.25150
C1566       C  0.87149183  0.99130098  0.57532987    -0.22960
C1567       C  0.85783217  0.96613572  0.56610559     0.20050
C1568       C  0.82956800  0.96366768  0.58250608     0.25090
C1569       C  0.81421084  0.98602309  0.60854951    -0.22910
C1570       C  0.82731397  0.51127429  0.61776780     0.19990
F1571       F  0.81235375  0.53370138  0.64242816    -0.12870
F1572       F  0.86714721  0.53897420  0.61101245    -0.15230
F1573       F  0.81764804  0.93874781  0.57342222    -0.15230
F1574       F  0.87171826  0.94355036  0.54124327    -0.12870
C1575       C  0.66579211  0.97247900  0.55840999     0.25150
C1576       C  0.63438095  0.99178806  0.57234430    -0.22960
C1577       C  0.63332016  0.50808454  0.60303221     0.20050
C1578       C  0.66342692  0.00516141  0.61976803     0.25090
C1579       C  0.69519691  0.98515873  0.60636666    -0.22910
C1580       C  0.69601660  0.96897131  0.57533934     0.19990
F1581       F  0.72592884  0.94880384  0.56190936    -0.12870
F1582       F  0.66708409  0.95645765  0.52870897    -0.15230
F1583       F  0.66143449  0.52232120  0.64888955    -0.15230
F1584       F  0.60303555  0.52652197  0.61697321    -0.12870
loop_ 
_geom_bond_atom_site_label_1 
_geom_bond_atom_site_label_2 
_geom_bond_distance 
_geom_bond_site_symmetry_2 
_ccdc_geom_bond_type 
O1          Zr13   2.436       .  S
O1            C3   1.286       .  A
O2         Zr237   2.424   1_554  S
O2          C399   1.285   1_545  A
C3          O398   1.285       .  A
C3          C190   1.465       .  S
O4          Zr16   2.440       .  S
O4          C798   1.287       .  A
O5         Zr238   2.421       .  S
O5            C6   1.285       .  A
C6          O796   1.287       .  A
C6          C925   1.479       .  S
O7          Zr16   2.424       .  S
O7            C9   1.285       .  A
O8          Zr39   2.435       .  S
O8          C405   1.288   1_545  A
C9          O404   1.288       .  A
C9          C170   1.491       .  S
O10         Zr13   2.435       .  S
O10         C804   1.287   1_455  A
O11         Zr40   2.427   1_554  S
O11          C12   1.287       .  A
C12         O802   1.287       .  A
C12         C945   1.490       .  S
Zr13         O14   2.433       .  S
Zr13         O15   2.436       .  S
Zr13        O217   2.370       .  S
Zr13        O218   2.369       .  S
Zr13        O835   2.369   1_455  S
Zr13        O441   2.369       .  S
O14          H57   0.990       .  S
O15          H56   0.990       .  S
O15          H60   0.990       .  S
Zr16         O17   2.435       .  S
Zr16         O18   2.436       .  S
Zr16         O20   2.366       .  S
Zr16         O19   2.371       .  S
Zr16        O440   2.372       .  S
Zr16        O838   2.366   1_455  S
O17          H58   0.990       .  S
O17          H61   0.990       .  S
O18          H51   0.990       .  S
O19        Zr211   2.370       .  S
O19        Zr435   2.374       .  S
O20        Zr211   2.369       .  S
O20       Zr1030   2.376   1_455  S
O20          H47   0.966       .  S
O21         Zr33   2.462       .  S
O21          C23   1.292   1_545  A
O22         Zr40   2.405   1_554  S
O22         C419   1.283       .  A
C23         O418   1.283       .  A
C23         C576   1.494       .  S
O24         Zr36   2.450       .  S
O24         C818   1.289       .  A
O25         Zr39   2.417       .  S
O25          C26   1.285       .  A
C26         O816   1.289   1_455  A
C26         C120   1.472       .  S
O27         Zr36   2.450       .  S
O27          C29   1.289   1_545  A
O28        Zr238   2.414       .  S
O28         C425   1.284       .  A
C29         O424   1.284       .  A
C29         C559   1.467       .  S
O30         Zr33   2.449       .  S
O30         C824   1.289       .  A
O31        Zr237   2.420   1_554  S
O31          C32   1.286       .  A
C32         O822   1.289   1_455  A
C32         C140   1.471       .  S
Zr33         O34   2.436       .  S
Zr33         O35   2.434       .  S
Zr33         O41   2.370   1_554  S
Zr33         O42   2.374       .  S
Zr33        O837   2.379       .  S
Zr33        O439   2.374   1_545  S
O34          H54   0.990       .  S
O34          H59   0.990       .  S
O35          H55   0.990       .  S
Zr36         O37   2.434       .  S
Zr36         O38   2.434       .  S
Zr36        O240   2.370       .  S
Zr36        O239   2.371       .  S
Zr36        O442   2.377   1_545  S
Zr36        O836   2.376       .  S
O37          H53   0.990       .  S
O38          H52   0.990       .  S
O38          H62   0.990       .  S
Zr39        O200   2.424       .  S
Zr39        O229   2.420       .  S
Zr39         O44   2.384       .  S
Zr39        O415   2.374   1_545  S
Zr39       O1032   2.386   1_455  S
Zr39        O243   2.387       .  S
Zr40        O203   2.421       .  S
Zr40        O226   2.414       .  S
Zr40         O43   2.380   1_556  S
Zr40       O1010   2.376   1_556  S
Zr40        O437   2.387       .  S
Zr40        O244   2.377       .  S
O41        Zr234   2.371       .  S
O41        Zr436   2.387   1_545  S
O41          H49   0.966       .  S
O42        Zr234   2.370   1_554  S
O42       Zr1029   2.386   1_554  S
O43        Zr805   2.369       .  S
O43        Zr429   2.374       .  S
O44        Zr412   2.372   1_545  S
O44        Zr828   2.376   1_455  S
O44          H48   0.966       .  S
O45        Zr409   2.369   1_545  S
O45        Zr825   2.379   1_455  S
O45        Zr237   2.387   1_554  S
O45          H50   0.966       .  S
O46        Zr808   2.366       .  S
O46        Zr432   2.377       .  S
O46        Zr238   2.377       .  S
C63         C150   1.476       .  S
C63          C64   1.402       .  A
C63          C68   1.403       .  A
C64          C65   1.403       .  A
C64          H69   1.084   1_455  S
C65         C143   1.479       .  S
C65          C66   1.404       .  A
C66          C67   1.405       .  A
C66          H70   1.084       .  S
C67         C110   1.484       .  S
C67          C68   1.404       .  A
C68          H71   1.084       .  S
C72         C130   1.470       .  S
C72          C73   1.400       .  A
C72          C77   1.402       .  A
C73          C74   1.401       .  A
C73          H78   1.084       .  S
C74         C123   1.477       .  S
C74          C75   1.404       .  A
C75          C76   1.406       .  A
C75          H79   1.084       .  S
C76         C113   1.484       .  S
C76          C77   1.405       .  A
C77          H80   1.084       .  S
C81         C183   1.479       .  S
C81          C82   1.405       .  A
C81          C86   1.403       .  A
C82          C83   1.406       .  A
C82          H87   1.083       .  S
C83         C193   1.489       .  S
C83          C84   1.405       .  A
C84          C85   1.403       .  A
C84          H88   1.083       .  S
C85         C100   1.480       .  S
C85          C86   1.402       .  A
C86          H89   1.084       .  S
C90         C160   1.480       .  S
C90          C91   1.405       .  A
C90          C95   1.403       .  A
C91          C92   1.407       .  A
C91          H96   1.083       .  S
C92         C173   1.492       .  S
C92          C93   1.407       .  A
C93          C94   1.403       .  A
C93          H97   1.083       .  S
C94         C103   1.483       .  S
C94          C95   1.401       .  A
C95          H98   1.084       .  S
C99         C100   1.406       .  A
C99         C104   1.395       .  A
C99         F502   1.358       .  S
C100        C101   1.406       .  A
C101        C102   1.401       .  A
C101        F108   1.358       .  S
C102        C103   1.409       .  A
C102        F107   1.358       .  S
C103        C104   1.406       .  A
C104        F501   1.358       .  S
F105        C500   1.358   1_545  S
F106        C495   1.358   1_545  S
C109        C110   1.408       .  A
C109        C114   1.401       .  A
C109        F116   1.358       .  S
C110        C903   1.407   1_455  A
C111        C112   1.398       .  A
C111        C902   1.407       .  A
C111        F118   1.358       .  S
C112        C905   1.407       .  A
C112        F117   1.358       .  S
C113        C114   1.408       .  A
C113        C904   1.407   1_455  A
C114        F115   1.358       .  S
C119        C124   1.400       .  A
C119        C912   1.405       .  A
C119        F126   1.358       .  S
C120        C121   1.405       .  A
C120        C911   1.405   1_455  A
C121        C122   1.398       .  A
C121        F128   1.358       .  S
C122        C123   1.405       .  A
C122        F127   1.358       .  S
C123        C916   1.406   1_455  A
C124        C915   1.406       .  A
C124        F125   1.358       .  S
C129        C134   1.399       .  A
C129        C922   1.402       .  A
C129        F136   1.358       .  S
C130        C131   1.401       .  A
C130        C921   1.402   1_455  A
C131        C132   1.397       .  A
C131        F138   1.358       .  S
C132        C133   1.409       .  A
C132        F137   1.358       .  S
C133        C798   1.479       .  S
C133        C926   1.408   1_455  A
C134        C925   1.408       .  A
C134        F135   1.356       .  S
C139        C140   1.404       .  A
C139        C144   1.398       .  A
C139        F146   1.358       .  S
C140        C933   1.405   1_455  A
C141        C142   1.400       .  A
C141        C932   1.405       .  A
C141        F148   1.358       .  S
C142        C935   1.406       .  A
C142        F147   1.358       .  S
C143        C144   1.406       .  A
C143        C934   1.406   1_455  A
C144        F145   1.358       .  S
C149        C150   1.401       .  A
C149        C154   1.396       .  A
C149        F156   1.358       .  S
C150        C943   1.403   1_455  A
C151        C152   1.401       .  A
C151        C942   1.403       .  A
C151        F158   1.358       .  S
C152        C945   1.413       .  A
C152        F157   1.358       .  S
C153        C804   1.490   1_455  S
C153        C154   1.414       .  A
C153        C944   1.413   1_455  A
C154        F155   1.358       .  S
C159        C160   1.406       .  A
C159        C164   1.397       .  A
C159        F166   1.358       .  S
C160        C557   1.408       .  A
C161        C162   1.400       .  A
C161        C556   1.408   1_545  A
C161        F168   1.358       .  S
C162        C559   1.403   1_545  A
C162        F167   1.358       .  S
C163        C425   1.467       .  S
C163        C164   1.402       .  A
C163        C558   1.403       .  A
C164        F165   1.356       .  S
C169        C174   1.402       .  A
C169        C566   1.410   1_545  A
C169        F176   1.358       .  S
C170        C171   1.413       .  A
C170        C565   1.410       .  A
C171        C172   1.394       .  A
C171        F178   1.358       .  S
C172        C173   1.407       .  A
C172        F177   1.358       .  S
C173        C570   1.410       .  A
C174        C569   1.410   1_545  A
C174        F175   1.357       .  S
C179        C184   1.401       .  A
C179        C576   1.413   1_545  A
C179        F186   1.357       .  S
C180        C419   1.494       .  S
C180        C181   1.417       .  A
C180        C575   1.413       .  A
C181        C182   1.396       .  A
C181        F188   1.358       .  S
C182        C183   1.401       .  A
C182        F187   1.358       .  S
C183        C580   1.405       .  A
C184        C579   1.405   1_545  A
C184        F185   1.358       .  S
C189        C190   1.402       .  A
C189        C194   1.400       .  A
C189        F196   1.358       .  S
C190        C587   1.400       .  A
C191        C586   1.400   1_545  A
C191        C588   1.397       .  A
C191        F198   1.358       .  S
C192        C193   1.412       .  A
C192        C587   1.397       .  A
C192        F593   1.358       .  S
C193        C194   1.411       .  A
C194        F195   1.358       .  S
F197        C588   1.358       .  S
O199       Zr211   2.436       .  S
O199        C201   1.286       .  A
O200        C597   1.285   1_545  A
C201        O596   1.285       .  A
C201        C388   1.465       .  S
O202       Zr214   2.440       .  S
O202        C996   1.287       .  A
O203        C204   1.285       .  A
C204        O994   1.287       .  A
C204       C1123   1.479       .  S
O205       Zr214   2.424       .  S
O205        C207   1.285       .  A
O206       Zr237   2.435       .  S
O206        C603   1.288   1_545  A
C207        O602   1.288       .  A
C207        C368   1.491       .  S
O208       Zr211   2.435       .  S
O208       C1002   1.287   1_455  A
O209       Zr238   2.427       .  S
O209        C210   1.287       .  A
C210       O1000   1.287       .  A
C210       C1143   1.490       .  S
Zr211       O212   2.433       .  S
Zr211       O213   2.436       .  S
Zr211      O1033   2.369   1_455  S
Zr211       O639   2.369       .  S
O212        H255   0.990       .  S
O213        H254   0.990       .  S
O213        H258   0.990       .  S
Zr214       O215   2.435       .  S
Zr214       O216   2.436       .  S
Zr214       O218   2.366   1_556  S
Zr214       O217   2.371   1_556  S
Zr214       O638   2.372       .  S
Zr214      O1036   2.366   1_455  S
O215        H256   0.990       .  S
O215        H259   0.990       .  S
O216        H249   0.990       .  S
O217       Zr633   2.374   1_554  S
O218       Zr832   2.376   1_454  S
O218        H245   0.966       .  S
O219       Zr231   2.462       .  S
O219        C221   1.292   1_545  A
O220       Zr238   2.405       .  S
O220        C617   1.283       .  A
C221        O616   1.283       .  A
C221        C774   1.494       .  S
O222       Zr234   2.450       .  S
O222       C1016   1.289       .  A
O223       Zr237   2.417       .  S
O223        C224   1.285       .  A
C224       O1014   1.289   1_455  A
C224        C318   1.472       .  S
O225       Zr234   2.450       .  S
O225        C227   1.289   1_545  A
O226        C623   1.284       .  A
C227        O622   1.284       .  A
C227        C757   1.467       .  S
O228       Zr231   2.449       .  S
O228       C1022   1.289       .  A
O229        C230   1.286       .  A
C230       O1020   1.289   1_455  A
C230        C338   1.471       .  S
Zr231       O232   2.436       .  S
Zr231       O233   2.434       .  S
Zr231       O239   2.370       .  S
Zr231       O240   2.374       .  S
Zr231      O1035   2.379       .  S
Zr231       O637   2.374   1_545  S
O232        H252   0.990       .  S
O232        H257   0.990       .  S
O233        H253   0.990       .  S
Zr234       O235   2.434       .  S
Zr234       O236   2.434       .  S
Zr234       O640   2.377   1_545  S
Zr234      O1034   2.376       .  S
O235        H251   0.990       .  S
O236        H250   0.990       .  S
O236        H260   0.990       .  S
Zr237       O613   2.374   1_546  S
Zr237       O834   2.386   1_456  S
Zr237       O242   2.384       .  S
Zr238       O812   2.376       .  S
Zr238       O635   2.387       .  S
Zr238       O241   2.380       .  S
O239       Zr634   2.387   1_545  S
O239        H247   0.966       .  S
O240       Zr831   2.386       .  S
O241      Zr1003   2.369       .  S
O241       Zr627   2.374       .  S
O242       Zr610   2.372   1_545  S
O242      Zr1026   2.376   1_455  S
O242        H246   0.966       .  S
O243       Zr607   2.369   1_545  S
O243      Zr1023   2.379   1_455  S
O243        H248   0.966       .  S
O244      Zr1006   2.366       .  S
O244       Zr630   2.377       .  S
C261        C348   1.476       .  S
C261        C262   1.402       .  A
C261        C266   1.403       .  A
C262        C263   1.403       .  A
C262        H267   1.084   1_455  S
C263        C341   1.479       .  S
C263        C264   1.404       .  A
C264        C265   1.405       .  A
C264        H268   1.084       .  S
C265        C308   1.484       .  S
C265        C266   1.404       .  A
C266        H269   1.084       .  S
C270        C328   1.470       .  S
C270        C271   1.400       .  A
C270        C275   1.402       .  A
C271        C272   1.401       .  A
C271        H276   1.084       .  S
C272        C321   1.477       .  S
C272        C273   1.404       .  A
C273        C274   1.406       .  A
C273        H277   1.084       .  S
C274        C311   1.484       .  S
C274        C275   1.405       .  A
C275        H278   1.084       .  S
C279        C381   1.479       .  S
C279        C280   1.405       .  A
C279        C284   1.403       .  A
C280        C281   1.406       .  A
C280        H285   1.083       .  S
C281        C391   1.489       .  S
C281        C282   1.405       .  A
C282        C283   1.403       .  A
C282        H286   1.083       .  S
C283        C298   1.480       .  S
C283        C284   1.402       .  A
C284        H287   1.084       .  S
C288        C358   1.480       .  S
C288        C289   1.405       .  A
C288        C293   1.403       .  A
C289        C290   1.407       .  A
C289        H294   1.083       .  S
C290        C371   1.492       .  S
C290        C291   1.407       .  A
C291        C292   1.403       .  A
C291        H295   1.083       .  S
C292        C301   1.483       .  S
C292        C293   1.401       .  A
C293        H296   1.084       .  S
C297        C298   1.406       .  A
C297        C302   1.395       .  A
C297        F700   1.358       .  S
C298        C299   1.406       .  A
C299        C300   1.401       .  A
C299        F306   1.358       .  S
C300        C301   1.409       .  A
C300        F305   1.358       .  S
C301        C302   1.406       .  A
C302        F699   1.358       .  S
F303        C698   1.358   1_545  S
F304        C693   1.358   1_545  S
C307        C308   1.408       .  A
C307        C312   1.401       .  A
C307        F314   1.358       .  S
C308       C1101   1.407   1_455  A
C309       C1100   1.407       .  A
C309        C310   1.398       .  A
C309        F316   1.358       .  S
C310       C1103   1.407       .  A
C310        F315   1.358       .  S
C311       C1102   1.407   1_455  A
C311        C312   1.408       .  A
C312        F313   1.358       .  S
C317       C1110   1.405       .  A
C317        C322   1.400       .  A
C317        F324   1.358       .  S
C318       C1109   1.405   1_455  A
C318        C319   1.405       .  A
C319        C320   1.398       .  A
C319        F326   1.358       .  S
C320        C321   1.405       .  A
C320        F325   1.358       .  S
C321       C1114   1.406   1_455  A
C322       C1113   1.406       .  A
C322        F323   1.358       .  S
C327       C1120   1.402       .  A
C327        C332   1.399       .  A
C327        F334   1.358       .  S
C328       C1119   1.402   1_455  A
C328        C329   1.401       .  A
C329        C330   1.397       .  A
C329        F336   1.358       .  S
C330        C331   1.409       .  A
C330        F335   1.358       .  S
C331        C996   1.479       .  S
C331       C1124   1.408   1_455  A
C332       C1123   1.408       .  A
C332        F333   1.356       .  S
C337        C338   1.404       .  A
C337        C342   1.398       .  A
C337        F344   1.358       .  S
C338       C1131   1.405   1_455  A
C339       C1130   1.405       .  A
C339        C340   1.400       .  A
C339        F346   1.358       .  S
C340       C1133   1.406       .  A
C340        F345   1.358       .  S
C341       C1132   1.406   1_455  A
C341        C342   1.406       .  A
C342        F343   1.358       .  S
C347        C348   1.401       .  A
C347        C352   1.396       .  A
C347        F354   1.358       .  S
C348       C1141   1.403   1_455  A
C349       C1140   1.403       .  A
C349        C350   1.401       .  A
C349        F356   1.358       .  S
C350       C1143   1.413       .  A
C350        F355   1.358       .  S
C351       C1002   1.490   1_455  S
C351       C1142   1.413   1_455  A
C351        C352   1.414       .  A
C352        F353   1.358       .  S
C357        C358   1.406       .  A
C357        C362   1.397       .  A
C357        F364   1.358       .  S
C358        C755   1.408       .  A
C359        C754   1.408   1_545  A
C359        C360   1.400       .  A
C359        F366   1.358       .  S
C360        C757   1.403   1_545  A
C360        F365   1.358       .  S
C361        C623   1.467       .  S
C361        C756   1.403       .  A
C361        C362   1.402       .  A
C362        F363   1.356       .  S
C367        C764   1.410   1_545  A
C367        C372   1.402       .  A
C367        F374   1.358       .  S
C368        C763   1.410       .  A
C368        C369   1.413       .  A
C369        C370   1.394       .  A
C369        F376   1.358       .  S
C370        C371   1.407       .  A
C370        F375   1.358       .  S
C371        C768   1.410       .  A
C372        C767   1.410   1_545  A
C372        F373   1.357       .  S
C377        C774   1.413   1_545  A
C377        C382   1.401       .  A
C377        F384   1.357       .  S
C378        C617   1.494       .  S
C378        C773   1.413       .  A
C378        C379   1.417       .  A
C379        C380   1.396       .  A
C379        F386   1.358       .  S
C380        C381   1.401       .  A
C380        F385   1.358       .  S
C381        C778   1.405       .  A
C382        C777   1.405   1_545  A
C382        F383   1.358       .  S
C387        C388   1.402       .  A
C387        C392   1.400       .  A
C387        F394   1.358       .  S
C388        C785   1.400       .  A
C389        C784   1.400   1_545  A
C389        C786   1.397       .  A
C389        F396   1.358       .  S
C390        C785   1.397       .  A
C390        C391   1.412       .  A
C390        F791   1.358       .  S
C391        C392   1.411       .  A
C392        F393   1.358       .  S
F395        C786   1.358       .  S
O397       Zr409   2.436       .  S
O397        C399   1.286       .  A
O398       Zr633   2.424   1_554  S
C399        C586   1.465       .  S
O400       Zr412   2.440       .  S
O400       C1194   1.287       .  A
O401       Zr634   2.421       .  S
O401        C402   1.285       .  A
C402       O1192   1.287       .  A
C402       C1321   1.479       .  S
O403       Zr412   2.424       .  S
O403        C405   1.285       .  A
O404       Zr435   2.435       .  S
C405        C566   1.491       .  S
O406       Zr409   2.435       .  S
O406       C1200   1.287   1_455  A
O407       Zr436   2.427   1_554  S
O407        C408   1.287       .  A
C408       O1198   1.287       .  A
C408       C1341   1.490       .  S
Zr409       O410   2.433       .  S
Zr409       O411   2.436       .  S
Zr409       O613   2.370       .  S
Zr409       O614   2.369       .  S
Zr409      O1231   2.369   1_455  S
O410        H453   0.990       .  S
O411        H452   0.990       .  S
O411        H456   0.990       .  S
Zr412       O413   2.435       .  S
Zr412       O414   2.436       .  S
Zr412       O416   2.366       .  S
Zr412       O415   2.371       .  S
Zr412      O1234   2.366   1_455  S
O413        H454   0.990       .  S
O413        H457   0.990       .  S
O414        H447   0.990       .  S
O415       Zr607   2.370       .  S
O416       Zr607   2.369       .  S
O416      Zr1426   2.376   1_455  S
O416        H443   0.966       .  S
O417       Zr429   2.462       .  S
O417        C419   1.292       .  A
O418       Zr436   2.405   1_554  S
O420       Zr432   2.450       .  S
O420       C1214   1.289       .  A
O421       Zr435   2.417       .  S
O421        C422   1.285       .  A
C422       O1212   1.289   1_455  A
C422        C516   1.472       .  S
O423       Zr432   2.450       .  S
O423        C425   1.289       .  A
O424       Zr634   2.414       .  S
O426       Zr429   2.449       .  S
O426       C1220   1.289       .  A
O427       Zr633   2.420   1_554  S
O427        C428   1.286       .  A
C428       O1218   1.289   1_455  A
C428        C536   1.471       .  S
Zr429       O430   2.436       .  S
Zr429       O431   2.434       .  S
Zr429       O437   2.370   1_554  S
Zr429       O438   2.374       .  S
Zr429      O1233   2.379       .  S
O430        H450   0.990       .  S
O430        H455   0.990       .  S
O431        H451   0.990       .  S
Zr432       O433   2.434       .  S
Zr432       O434   2.434       .  S
Zr432       O636   2.370       .  S
Zr432       O635   2.371       .  S
Zr432      O1232   2.376       .  S
O433        H449   0.990       .  S
O434        H448   0.990       .  S
O434        H458   0.990       .  S
Zr435       O596   2.424       .  S
Zr435       O625   2.420       .  S
Zr435      O1428   2.386   1_455  S
Zr435       O440   2.384       .  S
Zr435       O639   2.387       .  S
Zr436       O599   2.421       .  S
Zr436       O622   2.414       .  S
Zr436      O1406   2.376   1_556  S
Zr436       O439   2.380   1_556  S
Zr436       O640   2.377       .  S
O437       Zr630   2.371       .  S
O437        H445   0.966       .  S
O438       Zr630   2.370   1_554  S
O438      Zr1425   2.386   1_554  S
O439      Zr1201   2.369       .  S
O440      Zr1224   2.376   1_455  S
O440        H444   0.966       .  S
O441      Zr1221   2.379   1_455  S
O441       Zr633   2.387   1_554  S
O441        H446   0.966       .  S
O442      Zr1204   2.366       .  S
O442       Zr634   2.377       .  S
C459        C546   1.476       .  S
C459        C460   1.402       .  A
C459        C464   1.403       .  A
C460        C461   1.403       .  A
C460        H465   1.084   1_455  S
C461        C539   1.479       .  S
C461        C462   1.404       .  A
C462        C463   1.405       .  A
C462        H466   1.084       .  S
C463        C506   1.484       .  S
C463        C464   1.404       .  A
C464        H467   1.084       .  S
C468        C526   1.470       .  S
C468        C469   1.400       .  A
C468        C473   1.402       .  A
C469        C470   1.401       .  A
C469        H474   1.084       .  S
C470        C519   1.477       .  S
C470        C471   1.404       .  A
C471        C472   1.406       .  A
C471        H475   1.084       .  S
C472        C509   1.484       .  S
C472        C473   1.405       .  A
C473        H476   1.084       .  S
C477        C579   1.479       .  S
C477        C478   1.405       .  A
C477        C482   1.403       .  A
C478        C479   1.406       .  A
C478        H483   1.083       .  S
C479        C589   1.489       .  S
C479        C480   1.405       .  A
C480        C481   1.403       .  A
C480        H484   1.083       .  S
C481        C496   1.480       .  S
C481        C482   1.402       .  A
C482        H485   1.084       .  S
C486        C556   1.480       .  S
C486        C487   1.405       .  A
C486        C491   1.403       .  A
C487        C488   1.407       .  A
C487        H492   1.083       .  S
C488        C569   1.492       .  S
C488        C489   1.407       .  A
C489        C490   1.403       .  A
C489        H493   1.083       .  S
C490        C499   1.483       .  S
C490        C491   1.401       .  A
C491        H494   1.084       .  S
C495        C496   1.406       .  A
C495        C500   1.395       .  A
C496        C497   1.406       .  A
C497        C498   1.401       .  A
C497        F504   1.358       .  S
C498        C499   1.409       .  A
C498        F503   1.358       .  S
C499        C500   1.406       .  A
C505        C506   1.408       .  A
C505        C510   1.401       .  A
C505        F512   1.358       .  S
C506       C1299   1.407   1_455  A
C507       C1298   1.407       .  A
C507        C508   1.398       .  A
C507        F514   1.358       .  S
C508       C1301   1.407       .  A
C508        F513   1.358       .  S
C509       C1300   1.407   1_455  A
C509        C510   1.408       .  A
C510        F511   1.358       .  S
C515       C1308   1.405       .  A
C515        C520   1.400       .  A
C515        F522   1.358       .  S
C516       C1307   1.405   1_455  A
C516        C517   1.405       .  A
C517        C518   1.398       .  A
C517        F524   1.358       .  S
C518        C519   1.405       .  A
C518        F523   1.358       .  S
C519       C1312   1.406   1_455  A
C520       C1311   1.406       .  A
C520        F521   1.358       .  S
C525       C1318   1.402       .  A
C525        C530   1.399       .  A
C525        F532   1.358       .  S
C526       C1317   1.402   1_455  A
C526        C527   1.401       .  A
C527        C528   1.397       .  A
C527        F534   1.358       .  S
C528        C529   1.409       .  A
C528        F533   1.358       .  S
C529       C1194   1.479       .  S
C529       C1322   1.408   1_455  A
C530       C1321   1.408       .  A
C530        F531   1.356       .  S
C535        C536   1.404       .  A
C535        C540   1.398       .  A
C535        F542   1.358       .  S
C536       C1329   1.405   1_455  A
C537       C1328   1.405       .  A
C537        C538   1.400       .  A
C537        F544   1.358       .  S
C538       C1331   1.406       .  A
C538        F543   1.358       .  S
C539       C1330   1.406   1_455  A
C539        C540   1.406       .  A
C540        F541   1.358       .  S
C545        C546   1.401       .  A
C545        C550   1.396       .  A
C545        F552   1.358       .  S
C546       C1339   1.403   1_455  A
C547       C1338   1.403       .  A
C547        C548   1.401       .  A
C547        F554   1.358       .  S
C548       C1341   1.413       .  A
C548        F553   1.358       .  S
C549       C1200   1.490   1_455  S
C549       C1340   1.413   1_455  A
C549        C550   1.414       .  A
C550        F551   1.358       .  S
C555        C556   1.406       .  A
C555        C560   1.397       .  A
C555        F562   1.358       .  S
C557        C558   1.400       .  A
C557        F564   1.358       .  S
C558        F563   1.358       .  S
C559        C560   1.402       .  A
C560        F561   1.356       .  S
C565        C570   1.402       .  A
C565        F572   1.358       .  S
C566        C567   1.413       .  A
C567        C568   1.394       .  A
C567        F574   1.358       .  S
C568        C569   1.407       .  A
C568        F573   1.358       .  S
C570        F571   1.357       .  S
C575        C580   1.401       .  A
C575        F582   1.357       .  S
C576        C577   1.417       .  A
C577        C578   1.396       .  A
C577        F584   1.358       .  S
C578        C579   1.401       .  A
C578        F583   1.358       .  S
C580        F581   1.358       .  S
C585        C586   1.402       .  A
C585        C590   1.400       .  A
C585        F592   1.358       .  S
C587        F594   1.358       .  S
C588        C589   1.412   1_545  A
C589        C590   1.411       .  A
C590        F591   1.358       .  S
O595       Zr607   2.436       .  S
O595        C597   1.286       .  A
C597        C784   1.465       .  S
O598       Zr610   2.440       .  S
O598       C1392   1.287       .  A
O599        C600   1.285       .  A
C600       O1390   1.287       .  A
C600       C1519   1.479       .  S
O601       Zr610   2.424       .  S
O601        C603   1.285       .  A
O602       Zr633   2.435       .  S
C603        C764   1.491       .  S
O604       Zr607   2.435       .  S
O604       C1398   1.287   1_455  A
O605       Zr634   2.427       .  S
O605        C606   1.287       .  A
C606       O1396   1.287       .  A
C606       C1539   1.490       .  S
Zr607       O608   2.433       .  S
Zr607       O609   2.436       .  S
Zr607      O1429   2.369   1_455  S
O608        H651   0.990       .  S
O609        H650   0.990       .  S
O609        H654   0.990       .  S
Zr610       O611   2.435       .  S
Zr610       O612   2.436       .  S
Zr610       O614   2.366   1_556  S
Zr610       O613   2.371   1_556  S
Zr610      O1432   2.366   1_455  S
O611        H652   0.990       .  S
O611        H655   0.990       .  S
O612        H645   0.990       .  S
O614      Zr1228   2.376   1_454  S
O614        H641   0.966       .  S
O615       Zr627   2.462       .  S
O615        C617   1.292       .  A
O616       Zr634   2.405       .  S
O618       Zr630   2.450       .  S
O618       C1412   1.289       .  A
O619       Zr633   2.417       .  S
O619        C620   1.285       .  A
C620       O1410   1.289   1_455  A
C620        C714   1.472       .  S
O621       Zr630   2.450       .  S
O621        C623   1.289       .  A
O624       Zr627   2.449       .  S
O624       C1418   1.289       .  A
O625        C626   1.286       .  A
C626       O1416   1.289   1_455  A
C626        C734   1.471       .  S
Zr627       O628   2.436       .  S
Zr627       O629   2.434       .  S
Zr627       O635   2.370       .  S
Zr627       O636   2.374       .  S
Zr627      O1431   2.379       .  S
O628        H648   0.990       .  S
O628        H653   0.990       .  S
O629        H649   0.990       .  S
Zr630       O631   2.434       .  S
Zr630       O632   2.434       .  S
Zr630      O1430   2.376       .  S
O631        H647   0.990       .  S
O632        H646   0.990       .  S
O632        H656   0.990       .  S
Zr633      O1230   2.386   1_456  S
Zr633       O638   2.384       .  S
Zr634      O1208   2.376       .  S
Zr634       O637   2.380       .  S
O635        H643   0.966       .  S
O636      Zr1227   2.386       .  S
O637      Zr1399   2.369       .  S
O638      Zr1422   2.376   1_455  S
O638        H642   0.966       .  S
O639      Zr1419   2.379   1_455  S
O639        H644   0.966       .  S
O640      Zr1402   2.366       .  S
C657        C744   1.476       .  S
C657        C658   1.402       .  A
C657        C662   1.403       .  A
C658        C659   1.403       .  A
C658        H663   1.084   1_455  S
C659        C737   1.479       .  S
C659        C660   1.404       .  A
C660        C661   1.405       .  A
C660        H664   1.084       .  S
C661        C704   1.484       .  S
C661        C662   1.404       .  A
C662        H665   1.084       .  S
C666        C724   1.470       .  S
C666        C667   1.400       .  A
C666        C671   1.402       .  A
C667        C668   1.401       .  A
C667        H672   1.084       .  S
C668        C717   1.477       .  S
C668        C669   1.404       .  A
C669        C670   1.406       .  A
C669        H673   1.084       .  S
C670        C707   1.484       .  S
C670        C671   1.405       .  A
C671        H674   1.084       .  S
C675        C777   1.479       .  S
C675        C676   1.405       .  A
C675        C680   1.403       .  A
C676        C677   1.406       .  A
C676        H681   1.083       .  S
C677        C787   1.489       .  S
C677        C678   1.405       .  A
C678        C679   1.403       .  A
C678        H682   1.083       .  S
C679        C694   1.480       .  S
C679        C680   1.402       .  A
C680        H683   1.084       .  S
C684        C754   1.480       .  S
C684        C685   1.405       .  A
C684        C689   1.403       .  A
C685        C686   1.407       .  A
C685        H690   1.083       .  S
C686        C767   1.492       .  S
C686        C687   1.407       .  A
C687        C688   1.403       .  A
C687        H691   1.083       .  S
C688        C697   1.483       .  S
C688        C689   1.401       .  A
C689        H692   1.084       .  S
C693        C694   1.406       .  A
C693        C698   1.395       .  A
C694        C695   1.406       .  A
C695        C696   1.401       .  A
C695        F702   1.358       .  S
C696        C697   1.409       .  A
C696        F701   1.358       .  S
C697        C698   1.406       .  A
C703        C704   1.408       .  A
C703        C708   1.401       .  A
C703        F710   1.358       .  S
C704       C1497   1.407   1_455  A
C705       C1496   1.407       .  A
C705        C706   1.398       .  A
C705        F712   1.358       .  S
C706       C1499   1.407       .  A
C706        F711   1.358       .  S
C707       C1498   1.407   1_455  A
C707        C708   1.408       .  A
C708        F709   1.358       .  S
C713       C1506   1.405       .  A
C713        C718   1.400       .  A
C713        F720   1.358       .  S
C714       C1505   1.405   1_455  A
C714        C715   1.405       .  A
C715        C716   1.398       .  A
C715        F722   1.358       .  S
C716        C717   1.405       .  A
C716        F721   1.358       .  S
C717       C1510   1.406   1_455  A
C718       C1509   1.406       .  A
C718        F719   1.358       .  S
C723       C1516   1.402       .  A
C723        C728   1.399       .  A
C723        F730   1.358       .  S
C724       C1515   1.402   1_455  A
C724        C725   1.401       .  A
C725        C726   1.397       .  A
C725        F732   1.358       .  S
C726        C727   1.409       .  A
C726        F731   1.358       .  S
C727       C1392   1.479       .  S
C727       C1520   1.408   1_455  A
C728       C1519   1.408       .  A
C728        F729   1.356       .  S
C733        C734   1.404       .  A
C733        C738   1.398       .  A
C733        F740   1.358       .  S
C734       C1527   1.405   1_455  A
C735       C1526   1.405       .  A
C735        C736   1.400       .  A
C735        F742   1.358       .  S
C736       C1529   1.406       .  A
C736        F741   1.358       .  S
C737       C1528   1.406   1_455  A
C737        C738   1.406       .  A
C738        F739   1.358       .  S
C743        C744   1.401       .  A
C743        C748   1.396       .  A
C743        F750   1.358       .  S
C744       C1537   1.403   1_455  A
C745       C1536   1.403       .  A
C745        C746   1.401       .  A
C745        F752   1.358       .  S
C746       C1539   1.413       .  A
C746        F751   1.358       .  S
C747       C1398   1.490   1_455  S
C747       C1538   1.413   1_455  A
C747        C748   1.414       .  A
C748        F749   1.358       .  S
C753        C754   1.406       .  A
C753        C758   1.397       .  A
C753        F760   1.358       .  S
C755        C756   1.400       .  A
C755        F762   1.358       .  S
C756        F761   1.358       .  S
C757        C758   1.402       .  A
C758        F759   1.356       .  S
C763        C768   1.402       .  A
C763        F770   1.358       .  S
C764        C765   1.413       .  A
C765        C766   1.394       .  A
C765        F772   1.358       .  S
C766        C767   1.407       .  A
C766        F771   1.358       .  S
C768        F769   1.357       .  S
C773        C778   1.401       .  A
C773        F780   1.357       .  S
C774        C775   1.417       .  A
C775        C776   1.396       .  A
C775        F782   1.358       .  S
C776        C777   1.401       .  A
C776        F781   1.358       .  S
C778        F779   1.358       .  S
C783        C784   1.402       .  A
C783        C788   1.400       .  A
C783        F790   1.358       .  S
C785        F792   1.358       .  S
C786        C787   1.412   1_545  A
C787        C788   1.411       .  A
C788        F789   1.358       .  S
O793       Zr805   2.436       .  S
O793        C795   1.286       .  A
O794      Zr1029   2.424   1_554  S
O794       C1191   1.285   1_545  A
C795       O1190   1.285       .  A
C795        C982   1.465       .  S
O796       Zr808   2.440       .  S
O797      Zr1030   2.421       .  S
O797        C798   1.285   1_655  A
O799       Zr808   2.424       .  S
O799        C801   1.285       .  A
O800       Zr831   2.435       .  S
O800       C1197   1.288   1_545  A
C801       O1196   1.288       .  A
C801        C962   1.491       .  S
O802       Zr805   2.435       .  S
O803       Zr832   2.427   1_554  S
O803        C804   1.287       .  A
Zr805       O806   2.433       .  S
Zr805       O807   2.436       .  S
Zr805      O1009   2.370       .  S
Zr805      O1010   2.369       .  S
Zr805      O1233   2.369       .  S
O806        H849   0.990       .  S
O807        H848   0.990       .  S
O807        H852   0.990       .  S
Zr808       O809   2.435       .  S
Zr808       O810   2.436       .  S
Zr808       O812   2.366       .  S
Zr808       O811   2.371       .  S
Zr808      O1232   2.372       .  S
O809        H850   0.990       .  S
O809        H853   0.990       .  S
O810        H843   0.990       .  S
O811      Zr1003   2.370       .  S
O811      Zr1227   2.374       .  S
O812      Zr1003   2.369       .  S
O812        H839   0.966       .  S
O813       Zr825   2.462       .  S
O813        C815   1.292   1_545  A
O814       Zr832   2.405   1_554  S
O814       C1211   1.283       .  A
C815       O1210   1.283       .  A
C815       C1368   1.494       .  S
O816       Zr828   2.450       .  S
O817       Zr831   2.417       .  S
O817        C818   1.285       .  A
C818        C912   1.472       .  S
O819       Zr828   2.450       .  S
O819        C821   1.289   1_545  A
O820      Zr1030   2.414       .  S
O820       C1217   1.284       .  A
C821       O1216   1.284       .  A
C821       C1351   1.467       .  S
O822       Zr825   2.449       .  S
O823      Zr1029   2.420   1_554  S
O823        C824   1.286       .  A
C824        C932   1.471       .  S
Zr825       O826   2.436       .  S
Zr825       O827   2.434       .  S
Zr825       O833   2.370   1_554  S
Zr825       O834   2.374       .  S
Zr825      O1231   2.374   1_545  S
O826        H846   0.990       .  S
O826        H851   0.990       .  S
O827        H847   0.990       .  S
Zr828       O829   2.434       .  S
Zr828       O830   2.434       .  S
Zr828      O1032   2.370       .  S
Zr828      O1031   2.371       .  S
Zr828      O1234   2.377   1_545  S
O829        H845   0.990       .  S
O830        H844   0.990       .  S
O830        H854   0.990       .  S
Zr831       O992   2.424       .  S
Zr831      O1021   2.420       .  S
Zr831      O1207   2.374   1_545  S
Zr831       O836   2.384       .  S
Zr831      O1035   2.387       .  S
Zr832       O995   2.421       .  S
Zr832      O1018   2.414       .  S
Zr832      O1229   2.387       .  S
Zr832       O835   2.380   1_556  S
Zr832      O1036   2.377       .  S
O833      Zr1026   2.371       .  S
O833      Zr1228   2.387   1_545  S
O833        H841   0.966       .  S
O834      Zr1026   2.370   1_554  S
O835      Zr1221   2.374       .  S
O836      Zr1204   2.372   1_545  S
O836        H840   0.966       .  S
O837      Zr1201   2.369   1_545  S
O837      Zr1029   2.387   1_554  S
O837        H842   0.966       .  S
O838      Zr1224   2.377       .  S
O838      Zr1030   2.377       .  S
C855        C942   1.476       .  S
C855        C856   1.402       .  A
C855        C860   1.403       .  A
C856        C857   1.403       .  A
C856        H861   1.084       .  S
C857        C935   1.479       .  S
C857        C858   1.404       .  A
C858        C859   1.405       .  A
C858        H862   1.084       .  S
C859        C902   1.484       .  S
C859        C860   1.404       .  A
C860        H863   1.084       .  S
C864        C922   1.470       .  S
C864        C865   1.400       .  A
C864        C869   1.402       .  A
C865        C866   1.401       .  A
C865        H870   1.084       .  S
C866        C915   1.477       .  S
C866        C867   1.404       .  A
C867        C868   1.406       .  A
C867        H871   1.084       .  S
C868        C905   1.484       .  S
C868        C869   1.405       .  A
C869        H872   1.084       .  S
C873        C975   1.479       .  S
C873        C874   1.405       .  A
C873        C878   1.403       .  A
C874        C875   1.406       .  A
C874        H879   1.083       .  S
C875        C985   1.489       .  S
C875        C876   1.405       .  A
C876        C877   1.403       .  A
C876        H880   1.083       .  S
C877        C892   1.480       .  S
C877        C878   1.402       .  A
C878        H881   1.084       .  S
C882        C952   1.480       .  S
C882        C883   1.405       .  A
C882        C887   1.403       .  A
C883        C884   1.407       .  A
C883        H888   1.083       .  S
C884        C965   1.492       .  S
C884        C885   1.407       .  A
C885        C886   1.403       .  A
C885        H889   1.083       .  S
C886        C895   1.483       .  S
C886        C887   1.401       .  A
C887        H890   1.084       .  S
C891        C892   1.406       .  A
C891        C896   1.395       .  A
C891       F1294   1.358       .  S
C892        C893   1.406       .  A
C893        C894   1.401       .  A
C893        F900   1.358       .  S
C894        C895   1.409       .  A
C894        F899   1.358       .  S
C895        C896   1.406       .  A
C896       F1293   1.358       .  S
F897       C1292   1.358   1_545  S
F898       C1287   1.358   1_545  S
C901        C902   1.408       .  A
C901        C906   1.401       .  A
C901        F908   1.358       .  S
C903        C904   1.398       .  A
C903        F910   1.358       .  S
C904        F909   1.358       .  S
C905        C906   1.408       .  A
C906        F907   1.358       .  S
C911        C916   1.400       .  A
C911        F918   1.358       .  S
C912        C913   1.405       .  A
C913        C914   1.398       .  A
C913        F920   1.358       .  S
C914        C915   1.405       .  A
C914        F919   1.358       .  S
C916        F917   1.358       .  S
C921        C926   1.399       .  A
C921        F928   1.358       .  S
C922        C923   1.401       .  A
C923        C924   1.397       .  A
C923        F930   1.358       .  S
C924        C925   1.409       .  A
C924        F929   1.358       .  S
C926        F927   1.356       .  S
C931        C932   1.404       .  A
C931        C936   1.398       .  A
C931        F938   1.358       .  S
C933        C934   1.400       .  A
C933        F940   1.358       .  S
C934        F939   1.358       .  S
C935        C936   1.406       .  A
C936        F937   1.358       .  S
C941        C942   1.401       .  A
C941        C946   1.396       .  A
C941        F948   1.358       .  S
C943        C944   1.401       .  A
C943        F950   1.358       .  S
C944        F949   1.358       .  S
C945        C946   1.414       .  A
C946        F947   1.358       .  S
C951        C952   1.406       .  A
C951        C956   1.397       .  A
C951        F958   1.358       .  S
C952       C1349   1.408       .  A
C953       C1348   1.408   1_545  A
C953        C954   1.400       .  A
C953        F960   1.358       .  S
C954       C1351   1.403   1_545  A
C954        F959   1.358       .  S
C955       C1217   1.467       .  S
C955       C1350   1.403       .  A
C955        C956   1.402       .  A
C956        F957   1.356       .  S
C961       C1358   1.410   1_545  A
C961        C966   1.402       .  A
C961        F968   1.358       .  S
C962       C1357   1.410       .  A
C962        C963   1.413       .  A
C963        C964   1.394       .  A
C963        F970   1.358       .  S
C964        C965   1.407       .  A
C964        F969   1.358       .  S
C965       C1362   1.410       .  A
C966       C1361   1.410   1_545  A
C966        F967   1.357       .  S
C971       C1368   1.413   1_545  A
C971        C976   1.401       .  A
C971        F978   1.357       .  S
C972       C1211   1.494       .  S
C972       C1367   1.413       .  A
C972        C973   1.417       .  A
C973        C974   1.396       .  A
C973        F980   1.358       .  S
C974        C975   1.401       .  A
C974        F979   1.358       .  S
C975       C1372   1.405       .  A
C976       C1371   1.405   1_545  A
C976        F977   1.358       .  S
C981        C982   1.402       .  A
C981        C986   1.400       .  A
C981        F988   1.358       .  S
C982       C1379   1.400       .  A
C983       C1378   1.400   1_545  A
C983       C1380   1.397       .  A
C983        F990   1.358       .  S
C984       C1379   1.397       .  A
C984        C985   1.412       .  A
C984       F1385   1.358       .  S
C985        C986   1.411       .  A
C986        F987   1.358       .  S
F989       C1380   1.358       .  S
O991      Zr1003   2.436       .  S
O991        C993   1.286       .  A
O992       C1389   1.285   1_545  A
C993       O1388   1.285       .  A
C993       C1180   1.465       .  S
O994      Zr1006   2.440       .  S
O995        C996   1.285   1_655  A
O997      Zr1006   2.424       .  S
O997        C999   1.285       .  A
O998      Zr1029   2.435       .  S
O998       C1395   1.288   1_545  A
C999       O1394   1.288       .  A
C999       C1160   1.491       .  S
O1000     Zr1003   2.435       .  S
O1001     Zr1030   2.427       .  S
O1001      C1002   1.287       .  A
Zr1003     O1004   2.433       .  S
Zr1003     O1005   2.436       .  S
Zr1003     O1431   2.369       .  S
O1004      H1047   0.990       .  S
O1005      H1046   0.990       .  S
O1005      H1050   0.990       .  S
Zr1006     O1007   2.435       .  S
Zr1006     O1008   2.436       .  S
Zr1006     O1010   2.366   1_556  S
Zr1006     O1009   2.371   1_556  S
Zr1006     O1430   2.372       .  S
O1007      H1048   0.990       .  S
O1007      H1051   0.990       .  S
O1008      H1041   0.990       .  S
O1009     Zr1425   2.374   1_554  S
O1010      H1037   0.966       .  S
O1011     Zr1023   2.462       .  S
O1011      C1013   1.292   1_545  A
O1012     Zr1030   2.405       .  S
O1012      C1409   1.283       .  A
C1013      O1408   1.283       .  A
C1013      C1566   1.494       .  S
O1014     Zr1026   2.450       .  S
O1015     Zr1029   2.417       .  S
O1015      C1016   1.285       .  A
C1016      C1110   1.472       .  S
O1017     Zr1026   2.450       .  S
O1017      C1019   1.289   1_545  A
O1018      C1415   1.284       .  A
C1019      O1414   1.284       .  A
C1019      C1549   1.467       .  S
O1020     Zr1023   2.449       .  S
O1021      C1022   1.286       .  A
C1022      C1130   1.471       .  S
Zr1023     O1024   2.436       .  S
Zr1023     O1025   2.434       .  S
Zr1023     O1031   2.370       .  S
Zr1023     O1032   2.374       .  S
Zr1023     O1429   2.374   1_545  S
O1024      H1044   0.990       .  S
O1024      H1049   0.990       .  S
O1025      H1045   0.990       .  S
Zr1026     O1027   2.434       .  S
Zr1026     O1028   2.434       .  S
Zr1026     O1432   2.377   1_545  S
O1027      H1043   0.990       .  S
O1028      H1042   0.990       .  S
O1028      H1052   0.990       .  S
Zr1029     O1405   2.374   1_546  S
Zr1029     O1034   2.384       .  S
Zr1030     O1427   2.387       .  S
Zr1030     O1033   2.380       .  S
O1031     Zr1426   2.387   1_545  S
O1031      H1039   0.966       .  S
O1033     Zr1419   2.374       .  S
O1034     Zr1402   2.372   1_545  S
O1034      H1038   0.966       .  S
O1035     Zr1399   2.369   1_545  S
O1035      H1040   0.966       .  S
O1036     Zr1422   2.377       .  S
C1053      C1140   1.476       .  S
C1053      C1054   1.402       .  A
C1053      C1058   1.403       .  A
C1054      C1055   1.403       .  A
C1054      H1059   1.084       .  S
C1055      C1133   1.479       .  S
C1055      C1056   1.404       .  A
C1056      C1057   1.405       .  A
C1056      H1060   1.084       .  S
C1057      C1100   1.484       .  S
C1057      C1058   1.404       .  A
C1058      H1061   1.084       .  S
C1062      C1120   1.470       .  S
C1062      C1063   1.400       .  A
C1062      C1067   1.402       .  A
C1063      C1064   1.401       .  A
C1063      H1068   1.084       .  S
C1064      C1113   1.477       .  S
C1064      C1065   1.404       .  A
C1065      C1066   1.406       .  A
C1065      H1069   1.084       .  S
C1066      C1103   1.484       .  S
C1066      C1067   1.405       .  A
C1067      H1070   1.084       .  S
C1071      C1173   1.479       .  S
C1071      C1072   1.405       .  A
C1071      C1076   1.403       .  A
C1072      C1073   1.406       .  A
C1072      H1077   1.083       .  S
C1073      C1183   1.489       .  S
C1073      C1074   1.405       .  A
C1074      C1075   1.403       .  A
C1074      H1078   1.083       .  S
C1075      C1090   1.480       .  S
C1075      C1076   1.402       .  A
C1076      H1079   1.084       .  S
C1080      C1150   1.480       .  S
C1080      C1081   1.405       .  A
C1080      C1085   1.403       .  A
C1081      C1082   1.407       .  A
C1081      H1086   1.083       .  S
C1082      C1163   1.492       .  S
C1082      C1083   1.407       .  A
C1083      C1084   1.403       .  A
C1083      H1087   1.083       .  S
C1084      C1093   1.483       .  S
C1084      C1085   1.401       .  A
C1085      H1088   1.084       .  S
C1089      C1090   1.406       .  A
C1089      C1094   1.395       .  A
C1089      F1492   1.358       .  S
C1090      C1091   1.406       .  A
C1091      C1092   1.401       .  A
C1091      F1098   1.358       .  S
C1092      C1093   1.409       .  A
C1092      F1097   1.358       .  S
C1093      C1094   1.406       .  A
C1094      F1491   1.358       .  S
F1095      C1490   1.358   1_545  S
F1096      C1485   1.358   1_545  S
C1099      C1100   1.408       .  A
C1099      C1104   1.401       .  A
C1099      F1106   1.358       .  S
C1101      C1102   1.398       .  A
C1101      F1108   1.358       .  S
C1102      F1107   1.358       .  S
C1103      C1104   1.408       .  A
C1104      F1105   1.358       .  S
C1109      C1114   1.400       .  A
C1109      F1116   1.358       .  S
C1110      C1111   1.405       .  A
C1111      C1112   1.398       .  A
C1111      F1118   1.358       .  S
C1112      C1113   1.405       .  A
C1112      F1117   1.358       .  S
C1114      F1115   1.358       .  S
C1119      C1124   1.399       .  A
C1119      F1126   1.358       .  S
C1120      C1121   1.401       .  A
C1121      C1122   1.397       .  A
C1121      F1128   1.358       .  S
C1122      C1123   1.409       .  A
C1122      F1127   1.358       .  S
C1124      F1125   1.356       .  S
C1129      C1130   1.404       .  A
C1129      C1134   1.398       .  A
C1129      F1136   1.358       .  S
C1131      C1132   1.400       .  A
C1131      F1138   1.358       .  S
C1132      F1137   1.358       .  S
C1133      C1134   1.406       .  A
C1134      F1135   1.358       .  S
C1139      C1140   1.401       .  A
C1139      C1144   1.396       .  A
C1139      F1146   1.358       .  S
C1141      C1142   1.401       .  A
C1141      F1148   1.358       .  S
C1142      F1147   1.358       .  S
C1143      C1144   1.414       .  A
C1144      F1145   1.358       .  S
C1149      C1150   1.406       .  A
C1149      C1154   1.397       .  A
C1149      F1156   1.358       .  S
C1150      C1547   1.408       .  A
C1151      C1546   1.408   1_545  A
C1151      C1152   1.400       .  A
C1151      F1158   1.358       .  S
C1152      C1549   1.403   1_545  A
C1152      F1157   1.358       .  S
C1153      C1415   1.467       .  S
C1153      C1548   1.403       .  A
C1153      C1154   1.402       .  A
C1154      F1155   1.356       .  S
C1159      C1556   1.410   1_545  A
C1159      C1164   1.402       .  A
C1159      F1166   1.358       .  S
C1160      C1555   1.410       .  A
C1160      C1161   1.413       .  A
C1161      C1162   1.394       .  A
C1161      F1168   1.358       .  S
C1162      C1163   1.407       .  A
C1162      F1167   1.358       .  S
C1163      C1560   1.410       .  A
C1164      C1559   1.410   1_545  A
C1164      F1165   1.357       .  S
C1169      C1566   1.413   1_545  A
C1169      C1174   1.401       .  A
C1169      F1176   1.357       .  S
C1170      C1409   1.494       .  S
C1170      C1565   1.413       .  A
C1170      C1171   1.417       .  A
C1171      C1172   1.396       .  A
C1171      F1178   1.358       .  S
C1172      C1173   1.401       .  A
C1172      F1177   1.358       .  S
C1173      C1570   1.405       .  A
C1174      C1569   1.405   1_545  A
C1174      F1175   1.358       .  S
C1179      C1180   1.402       .  A
C1179      C1184   1.400       .  A
C1179      F1186   1.358       .  S
C1180      C1577   1.400       .  A
C1181      C1576   1.400   1_545  A
C1181      C1578   1.397       .  A
C1181      F1188   1.358       .  S
C1182      C1577   1.397       .  A
C1182      C1183   1.412       .  A
C1182      F1583   1.358       .  S
C1183      C1184   1.411       .  A
C1184      F1185   1.358       .  S
F1187      C1578   1.358       .  S
O1189     Zr1201   2.436       .  S
O1189      C1191   1.286       .  A
O1190     Zr1425   2.424   1_554  S
C1191      C1378   1.465       .  S
O1192     Zr1204   2.440       .  S
O1193     Zr1426   2.421       .  S
O1193      C1194   1.285   1_655  A
O1195     Zr1204   2.424       .  S
O1195      C1197   1.285       .  A
O1196     Zr1227   2.435       .  S
C1197      C1358   1.491       .  S
O1198     Zr1201   2.435       .  S
O1199     Zr1228   2.427   1_554  S
O1199      C1200   1.287       .  A
Zr1201     O1202   2.433       .  S
Zr1201     O1203   2.436       .  S
Zr1201     O1405   2.370       .  S
Zr1201     O1406   2.369       .  S
O1202      H1245   0.990       .  S
O1203      H1244   0.990       .  S
O1203      H1248   0.990       .  S
Zr1204     O1205   2.435       .  S
Zr1204     O1206   2.436       .  S
Zr1204     O1208   2.366       .  S
Zr1204     O1207   2.371       .  S
O1205      H1246   0.990       .  S
O1205      H1249   0.990       .  S
O1206      H1239   0.990       .  S
O1207     Zr1399   2.370       .  S
O1208     Zr1399   2.369       .  S
O1208      H1235   0.966       .  S
O1209     Zr1221   2.462       .  S
O1209      C1211   1.292       .  A
O1210     Zr1228   2.405   1_554  S
O1212     Zr1224   2.450       .  S
O1213     Zr1227   2.417       .  S
O1213      C1214   1.285       .  A
C1214      C1308   1.472       .  S
O1215     Zr1224   2.450       .  S
O1215      C1217   1.289       .  A
O1216     Zr1426   2.414       .  S
O1218     Zr1221   2.449       .  S
O1219     Zr1425   2.420   1_554  S
O1219      C1220   1.286       .  A
C1220      C1328   1.471       .  S
Zr1221     O1222   2.436       .  S
Zr1221     O1223   2.434       .  S
Zr1221     O1229   2.370   1_554  S
Zr1221     O1230   2.374       .  S
O1222      H1242   0.990       .  S
O1222      H1247   0.990       .  S
O1223      H1243   0.990       .  S
Zr1224     O1225   2.434       .  S
Zr1224     O1226   2.434       .  S
Zr1224     O1428   2.370       .  S
Zr1224     O1427   2.371       .  S
O1225      H1241   0.990       .  S
O1226      H1240   0.990       .  S
O1226      H1250   0.990       .  S
Zr1227     O1388   2.424       .  S
Zr1227     O1417   2.420       .  S
Zr1227     O1232   2.384       .  S
Zr1227     O1431   2.387       .  S
Zr1228     O1391   2.421       .  S
Zr1228     O1414   2.414       .  S
Zr1228     O1231   2.380   1_556  S
Zr1228     O1432   2.377       .  S
O1229     Zr1422   2.371       .  S
O1229      H1237   0.966       .  S
O1230     Zr1422   2.370   1_554  S
O1232      H1236   0.966       .  S
O1233     Zr1425   2.387   1_554  S
O1233      H1238   0.966       .  S
O1234     Zr1426   2.377       .  S
C1251      C1338   1.476       .  S
C1251      C1252   1.402       .  A
C1251      C1256   1.403       .  A
C1252      C1253   1.403       .  A
C1252      H1257   1.084       .  S
C1253      C1331   1.479       .  S
C1253      C1254   1.404       .  A
C1254      C1255   1.405       .  A
C1254      H1258   1.084       .  S
C1255      C1298   1.484       .  S
C1255      C1256   1.404       .  A
C1256      H1259   1.084       .  S
C1260      C1318   1.470       .  S
C1260      C1261   1.400       .  A
C1260      C1265   1.402       .  A
C1261      C1262   1.401       .  A
C1261      H1266   1.084       .  S
C1262      C1311   1.477       .  S
C1262      C1263   1.404       .  A
C1263      C1264   1.406       .  A
C1263      H1267   1.084       .  S
C1264      C1301   1.484       .  S
C1264      C1265   1.405       .  A
C1265      H1268   1.084       .  S
C1269      C1371   1.479       .  S
C1269      C1270   1.405       .  A
C1269      C1274   1.403       .  A
C1270      C1271   1.406       .  A
C1270      H1275   1.083       .  S
C1271      C1381   1.489       .  S
C1271      C1272   1.405       .  A
C1272      C1273   1.403       .  A
C1272      H1276   1.083       .  S
C1273      C1288   1.480       .  S
C1273      C1274   1.402       .  A
C1274      H1277   1.084       .  S
C1278      C1348   1.480       .  S
C1278      C1279   1.405       .  A
C1278      C1283   1.403       .  A
C1279      C1280   1.407       .  A
C1279      H1284   1.083       .  S
C1280      C1361   1.492       .  S
C1280      C1281   1.407       .  A
C1281      C1282   1.403       .  A
C1281      H1285   1.083       .  S
C1282      C1291   1.483       .  S
C1282      C1283   1.401       .  A
C1283      H1286   1.084       .  S
C1287      C1288   1.406       .  A
C1287      C1292   1.395       .  A
C1288      C1289   1.406       .  A
C1289      C1290   1.401       .  A
C1289      F1296   1.358       .  S
C1290      C1291   1.409       .  A
C1290      F1295   1.358       .  S
C1291      C1292   1.406       .  A
C1297      C1298   1.408       .  A
C1297      C1302   1.401       .  A
C1297      F1304   1.358       .  S
C1299      C1300   1.398       .  A
C1299      F1306   1.358       .  S
C1300      F1305   1.358       .  S
C1301      C1302   1.408       .  A
C1302      F1303   1.358       .  S
C1307      C1312   1.400       .  A
C1307      F1314   1.358       .  S
C1308      C1309   1.405       .  A
C1309      C1310   1.398       .  A
C1309      F1316   1.358       .  S
C1310      C1311   1.405       .  A
C1310      F1315   1.358       .  S
C1312      F1313   1.358       .  S
C1317      C1322   1.399       .  A
C1317      F1324   1.358       .  S
C1318      C1319   1.401       .  A
C1319      C1320   1.397       .  A
C1319      F1326   1.358       .  S
C1320      C1321   1.409       .  A
C1320      F1325   1.358       .  S
C1322      F1323   1.356       .  S
C1327      C1328   1.404       .  A
C1327      C1332   1.398       .  A
C1327      F1334   1.358       .  S
C1329      C1330   1.400       .  A
C1329      F1336   1.358       .  S
C1330      F1335   1.358       .  S
C1331      C1332   1.406       .  A
C1332      F1333   1.358       .  S
C1337      C1338   1.401       .  A
C1337      C1342   1.396       .  A
C1337      F1344   1.358       .  S
C1339      C1340   1.401       .  A
C1339      F1346   1.358       .  S
C1340      F1345   1.358       .  S
C1341      C1342   1.414       .  A
C1342      F1343   1.358       .  S
C1347      C1348   1.406       .  A
C1347      C1352   1.397       .  A
C1347      F1354   1.358       .  S
C1349      C1350   1.400       .  A
C1349      F1356   1.358       .  S
C1350      F1355   1.358       .  S
C1351      C1352   1.402       .  A
C1352      F1353   1.356       .  S
C1357      C1362   1.402       .  A
C1357      F1364   1.358       .  S
C1358      C1359   1.413       .  A
C1359      C1360   1.394       .  A
C1359      F1366   1.358       .  S
C1360      C1361   1.407       .  A
C1360      F1365   1.358       .  S
C1362      F1363   1.357       .  S
C1367      C1372   1.401       .  A
C1367      F1374   1.357       .  S
C1368      C1369   1.417       .  A
C1369      C1370   1.396       .  A
C1369      F1376   1.358       .  S
C1370      C1371   1.401       .  A
C1370      F1375   1.358       .  S
C1372      F1373   1.358       .  S
C1377      C1378   1.402       .  A
C1377      C1382   1.400       .  A
C1377      F1384   1.358       .  S
C1379      F1386   1.358       .  S
C1380      C1381   1.412   1_545  A
C1381      C1382   1.411       .  A
C1382      F1383   1.358       .  S
O1387     Zr1399   2.436       .  S
O1387      C1389   1.286       .  A
C1389      C1576   1.465       .  S
O1390     Zr1402   2.440       .  S
O1391      C1392   1.285   1_655  A
O1393     Zr1402   2.424       .  S
O1393      C1395   1.285       .  A
O1394     Zr1425   2.435       .  S
C1395      C1556   1.491       .  S
O1396     Zr1399   2.435       .  S
O1397     Zr1426   2.427       .  S
O1397      C1398   1.287       .  A
Zr1399     O1400   2.433       .  S
Zr1399     O1401   2.436       .  S
O1400      H1443   0.990       .  S
O1401      H1442   0.990       .  S
O1401      H1446   0.990       .  S
Zr1402     O1403   2.435       .  S
Zr1402     O1404   2.436       .  S
Zr1402     O1406   2.366   1_556  S
Zr1402     O1405   2.371   1_556  S
O1403      H1444   0.990       .  S
O1403      H1447   0.990       .  S
O1404      H1437   0.990       .  S
O1406      H1433   0.966       .  S
O1407     Zr1419   2.462       .  S
O1407      C1409   1.292       .  A
O1408     Zr1426   2.405       .  S
O1410     Zr1422   2.450       .  S
O1411     Zr1425   2.417       .  S
O1411      C1412   1.285       .  A
C1412      C1506   1.472       .  S
O1413     Zr1422   2.450       .  S
O1413      C1415   1.289       .  A
O1416     Zr1419   2.449       .  S
O1417      C1418   1.286       .  A
C1418      C1526   1.471       .  S
Zr1419     O1420   2.436       .  S
Zr1419     O1421   2.434       .  S
Zr1419     O1427   2.370       .  S
Zr1419     O1428   2.374       .  S
O1420      H1440   0.990       .  S
O1420      H1445   0.990       .  S
O1421      H1441   0.990       .  S
Zr1422     O1423   2.434       .  S
Zr1422     O1424   2.434       .  S
O1423      H1439   0.990       .  S
O1424      H1438   0.990       .  S
O1424      H1448   0.990       .  S
Zr1425     O1430   2.384       .  S
Zr1426     O1429   2.380       .  S
O1427      H1435   0.966       .  S
O1430      H1434   0.966       .  S
O1431      H1436   0.966       .  S
C1449      C1536   1.476       .  S
C1449      C1450   1.402       .  A
C1449      C1454   1.403       .  A
C1450      C1451   1.403       .  A
C1450      H1455   1.084       .  S
C1451      C1529   1.479       .  S
C1451      C1452   1.404       .  A
C1452      C1453   1.405       .  A
C1452      H1456   1.084       .  S
C1453      C1496   1.484       .  S
C1453      C1454   1.404       .  A
C1454      H1457   1.084       .  S
C1458      C1516   1.470       .  S
C1458      C1459   1.400       .  A
C1458      C1463   1.402       .  A
C1459      C1460   1.401       .  A
C1459      H1464   1.084       .  S
C1460      C1509   1.477       .  S
C1460      C1461   1.404       .  A
C1461      C1462   1.406       .  A
C1461      H1465   1.084       .  S
C1462      C1499   1.484       .  S
C1462      C1463   1.405       .  A
C1463      H1466   1.084       .  S
C1467      C1569   1.479       .  S
C1467      C1468   1.405       .  A
C1467      C1472   1.403       .  A
C1468      C1469   1.406       .  A
C1468      H1473   1.083       .  S
C1469      C1579   1.489       .  S
C1469      C1470   1.405       .  A
C1470      C1471   1.403       .  A
C1470      H1474   1.083       .  S
C1471      C1486   1.480       .  S
C1471      C1472   1.402       .  A
C1472      H1475   1.084       .  S
C1476      C1546   1.480       .  S
C1476      C1477   1.405       .  A
C1476      C1481   1.403       .  A
C1477      C1478   1.407       .  A
C1477      H1482   1.083       .  S
C1478      C1559   1.492       .  S
C1478      C1479   1.407       .  A
C1479      C1480   1.403       .  A
C1479      H1483   1.083       .  S
C1480      C1489   1.483       .  S
C1480      C1481   1.401       .  A
C1481      H1484   1.084       .  S
C1485      C1486   1.406       .  A
C1485      C1490   1.395       .  A
C1486      C1487   1.406       .  A
C1487      C1488   1.401       .  A
C1487      F1494   1.358       .  S
C1488      C1489   1.409       .  A
C1488      F1493   1.358       .  S
C1489      C1490   1.406       .  A
C1495      C1496   1.408       .  A
C1495      C1500   1.401       .  A
C1495      F1502   1.358       .  S
C1497      C1498   1.398       .  A
C1497      F1504   1.358       .  S
C1498      F1503   1.358       .  S
C1499      C1500   1.408       .  A
C1500      F1501   1.358       .  S
C1505      C1510   1.400       .  A
C1505      F1512   1.358       .  S
C1506      C1507   1.405       .  A
C1507      C1508   1.398       .  A
C1507      F1514   1.358       .  S
C1508      C1509   1.405       .  A
C1508      F1513   1.358       .  S
C1510      F1511   1.358       .  S
C1515      C1520   1.399       .  A
C1515      F1522   1.358       .  S
C1516      C1517   1.401       .  A
C1517      C1518   1.397       .  A
C1517      F1524   1.358       .  S
C1518      C1519   1.409       .  A
C1518      F1523   1.358       .  S
C1520      F1521   1.356       .  S
C1525      C1526   1.404       .  A
C1525      C1530   1.398       .  A
C1525      F1532   1.358       .  S
C1527      C1528   1.400       .  A
C1527      F1534   1.358       .  S
C1528      F1533   1.358       .  S
C1529      C1530   1.406       .  A
C1530      F1531   1.358       .  S
C1535      C1536   1.401       .  A
C1535      C1540   1.396       .  A
C1535      F1542   1.358       .  S
C1537      C1538   1.401       .  A
C1537      F1544   1.358       .  S
C1538      F1543   1.358       .  S
C1539      C1540   1.414       .  A
C1540      F1541   1.358       .  S
C1545      C1546   1.406       .  A
C1545      C1550   1.397       .  A
C1545      F1552   1.358       .  S
C1547      C1548   1.400       .  A
C1547      F1554   1.358       .  S
C1548      F1553   1.358       .  S
C1549      C1550   1.402       .  A
C1550      F1551   1.356       .  S
C1555      C1560   1.402       .  A
C1555      F1562   1.358       .  S
C1556      C1557   1.413       .  A
C1557      C1558   1.394       .  A
C1557      F1564   1.358       .  S
C1558      C1559   1.407       .  A
C1558      F1563   1.358       .  S
C1560      F1561   1.357       .  S
C1565      C1570   1.401       .  A
C1565      F1572   1.357       .  S
C1566      C1567   1.417       .  A
C1567      C1568   1.396       .  A
C1567      F1574   1.358       .  S
C1568      C1569   1.401       .  A
C1568      F1573   1.358       .  S
C1570      F1571   1.358       .  S
C1575      C1576   1.402       .  A
C1575      C1580   1.400       .  A
C1575      F1582   1.358       .  S
C1577      F1584   1.358       .  S
C1578      C1579   1.412   1_545  A
C1579      C1580   1.411       .  A
C1580      F1581   1.358       .  S
