geometry optimzed in LAMMPS
_audit_creation_date              2020-12-01 
_audit_creation_method            'lammps2cif' 
_symmetry_space_group_name_H-M    'P1' 
_symmetry_Int_Tables_number       1 
_symmetry_cell_setting            triclinic 
loop_ 
_symmetry_equiv_pos_as_xyz 
  x,y,z 
_cell_length_a                    33.03601569 
_cell_length_b                    25.77381924590667 
_cell_length_c                    24.130285759002682 
_cell_angle_alpha                 90.74117429533955 
_cell_angle_beta                  76.45860038552661 
_cell_angle_gamma                 84.04050409027585 
loop_ 
_atom_site_label 
_atom_site_type_symbol 
_atom_site_fract_x 
_atom_site_fract_y 
_atom_site_fract_z 
_atom_site_charge 
O1          O  0.46174186  0.99414432  0.15813005    -0.79500
O2          O  0.47617732  0.48039809  0.88787495    -0.64200
O3          O  0.48800538  0.46437572  0.04091171    -1.10800
C4          C  0.09537938  0.07311225  0.99121713     1.07400
O5          O  0.04252868  0.50853259  0.83746702    -0.77400
O6          O  0.08505850  0.45684714  0.90946568    -0.65000
Ni7        Ni  0.43741288  0.46414290  0.09920394     1.34900
C8          C  0.09285851  0.44242898  0.95640370     0.86100
O9          O  0.45275941  0.41235939  0.96624912    -0.77900
O10         O  0.40812281  0.43090401  0.05041777    -0.88200
C11         C  0.50163715  0.49629890  0.84531260     0.85700
O12         O  0.41895783  0.03175919  0.08015743    -0.66400
O13         O  0.10311383  0.04943317  0.94272880    -0.85700
C14         C  0.41291973  0.04379425  0.03169356     0.86500
C15         C  0.41907884  0.40640608  0.00216617     1.08100
H16         H  0.00324907  0.06338334  0.95436870     0.39900
O17         O  0.01843116  0.02926436  0.95446268    -1.08400
O18         O  0.07680852  0.46775850  0.00378593    -0.65000
Ni19       Ni  0.02513464  0.01680484  0.03031951     1.26300
O20         O  0.43351058  0.01985403  0.98534265    -0.65200
O21         O  0.06209092  0.06931789  0.02909347    -0.77500
C22         C  0.99744457  0.00797507  0.14910515     0.85900
O23         O  0.02908335  0.00249124  0.10698007    -0.64700
Ni24       Ni  0.06883709  0.02560394  0.89491833     1.27400
Ni25       Ni  0.48139310  0.47270690  0.96483297     1.26100
H26         H  0.50550200  0.43219356  0.04238181     0.40400
N27         N  0.31859658  0.23933782  0.99002057    -0.35200
N28         N  0.25151908  0.32467760  0.99848573    -0.55800
N29         N  0.19498899  0.24953133  0.98128511    -0.35200
N30         N  0.26084841  0.16393877  0.97859637    -0.55800
C31         C  0.33671136  0.27928413  0.00751457     0.28400
C32         C  0.34166011  0.19450075  0.99746062     0.28400
C33         C  0.16783642  0.29362408  0.99115504     0.28400
C34         C  0.17222719  0.20854047  0.98286088     0.28400
C35         C  0.28345619  0.35326158  0.99924725     0.37000
C36         C  0.21867759  0.35878263  0.99360899     0.37000
C37         C  0.29639950  0.13077874  0.97126566     0.37000
C38         C  0.23110487  0.13597125  0.96713636     0.37000
C39         C  0.37186862  0.25961522  0.02573687    -0.20500
C40         C  0.37542692  0.20648819  0.01848254    -0.20500
C41         C  0.12733112  0.28055992  0.99840816    -0.20500
C42         C  0.13008553  0.22724465  0.99251273    -0.20500
C43         C  0.27075183  0.40581864  0.99534977    -0.21600
C44         C  0.22977687  0.40931533  0.99174829    -0.21600
C45         C  0.28901317  0.08121647  0.95596439    -0.21600
C46         C  0.24776081  0.08448170  0.95336397    -0.21600
C47         C  0.32336789  0.33316164  0.00602871    -0.16900
C48         C  0.33428000  0.14328149  0.98329391    -0.16900
C49         C  0.18848585  0.15509720  0.97244495    -0.16900
C50         C  0.17837292  0.34551555  0.99246297    -0.16900
H51         H  0.39311658  0.28108118  0.04249422     0.16000
H52         H  0.40054445  0.18028763  0.02761905     0.16000
H53         H  0.09853710  0.30661625  0.00676634     0.16000
H54         H  0.10363950  0.20537719  0.99449924     0.16000
H55         H  0.28902608  0.43836291  0.99516959     0.14300
H56         H  0.21044016  0.44509185  0.98813343     0.14300
H57         H  0.31073977  0.04600048  0.94876016     0.14300
H58         H  0.23172996  0.05224623  0.94357151     0.14300
H59         H  0.29470797  0.24278637  0.96864443     0.27500
H60         H  0.22724585  0.24790609  0.96874482     0.27500
C61         C  0.49074609  0.49891557  0.78969141     0.81600
N62         N  0.48016305  0.45643682  0.76414585    -0.76700
C63         C  0.46958622  0.46136550  0.71291167     0.84000
N64         N  0.46867197  0.50842743  0.68881984    -0.76600
C65         C  0.49605312  0.04968051  0.70722755     0.84100
N66         N  0.50623857  0.04484648  0.75840570    -0.78400
C67         C  0.00295635  0.00859738  0.20801839     0.81600
N68         N  0.01659722  0.45375084  0.23321246    -0.76700
C69         C  0.01509244  0.45293739  0.28994783     0.84000
N70         N  0.99325310  0.00183476  0.32234943    -0.76600
C71         C  0.98361866  0.04820524  0.30056709     0.84100
N72         N  0.98781746  0.05166513  0.24326097    -0.78400
N73         N  0.98561987  0.33094219  0.51240801    -0.35200
N74         N  0.99079800  0.26200241  0.41417569    -0.55800
N75         N  0.97879850  0.17593848  0.49080668    -0.35200
N76         N  0.49985105  0.24509312  0.58978360    -0.55800
C77         C  0.00049263  0.36106954  0.46816059     0.28400
C78         C  0.99497205  0.35138750  0.55936846     0.28400
C79         C  0.99199990  0.15090964  0.43894678     0.28400
C80         C  0.98621364  0.14140775  0.53005443     0.28400
C81         C  0.98461339  0.30862701  0.39083793     0.37000
C82         C  0.98164806  0.22589689  0.37929305     0.37000
C83         C  0.48847073  0.28437013  0.62977986     0.37000
C84         C  0.48804828  0.20139480  0.61632101     0.37000
C85         C  0.01986996  0.40070294  0.48713444    -0.20500
C86         C  0.01670316  0.39435457  0.54444236    -0.20500
C87         C  0.00864132  0.10027930  0.44535946    -0.20500
C88         C  0.00468326  0.09416086  0.50281775    -0.20500
C89         C  0.97065625  0.30205135  0.34150102    -0.21600
C90         C  0.96952360  0.24940994  0.33367077    -0.21600
C91         C  0.46968428  0.26575288  0.68198093    -0.21600
C92         C  0.46874296  0.21323305  0.67327226    -0.21600
C93         C  0.99429600  0.35594203  0.41219799    -0.16900
C94         C  0.49599987  0.33650650  0.61990778    -0.16900
C95         C  0.49667478  0.15093821  0.58984057    -0.17700
C96         C  0.98672859  0.17180771  0.38665187    -0.16900
H97         H  0.03466685  0.43123591  0.46232726     0.16000
H98         H  0.02872110  0.41904479  0.57202554     0.16000
H99         H  0.02205817  0.07056870  0.41220158     0.16000
H100        H  0.01433032  0.05884875  0.52230590     0.16000
H101        H  0.96195979  0.33176203  0.31392331     0.14300
H102        H  0.96044656  0.23063629  0.29876262     0.14300
H103        H  0.45726206  0.28787100  0.72185766     0.14300
H104        H  0.45498465  0.18716143  0.70533798     0.14300
H105        H  0.96581925  0.30210925  0.51199060     0.27500
H106        H  0.96132231  0.21237771  0.49945790     0.27500
C107        C  0.01359780  0.40353322  0.32045950    -0.15000
C108        C  0.99677609  0.40344466  0.37717693    -0.30200
H109        H  0.02632333  0.36738827  0.29619706     0.14000
H110        H  0.48753983  0.44468769  0.41034018     0.14500
C111        C  0.98998192  0.13596235  0.33627672    -0.15000
C112        C  0.96961361  0.09328431  0.34091042    -0.30200
H113        H  0.01162819  0.14295997  0.29634158     0.14000
H114        H  0.46217120  0.09721290  0.38655353     0.14500
C115        C  0.49102278  0.10374298  0.62487319    -0.15000
C116        C  0.50310058  0.09728906  0.67430255    -0.30200
H117        H  0.47735554  0.07238446  0.60781471     0.14000
H118        H  0.00085521  0.12687724  0.68704423     0.14500
C119        C  0.46533216  0.41636241  0.67743396    -0.15000
C120        C  0.49197809  0.37258594  0.67012213    -0.30200
H121        H  0.44558747  0.42349445  0.64743917     0.14000
H122        H  0.00002099  0.35760622  0.69535895     0.14500
C123        C  0.36780308  0.09976324  0.98247433    -0.15000
C124        C  0.37964459  0.08613969  0.03034587    -0.30200
H125        H  0.38157137  0.07790146  0.94254605     0.14000
H126        H  0.36383449  0.10673072  0.07042973     0.14500
C127        C  0.12349690  0.39639396  0.95506335    -0.15000
C128        C  0.14462311  0.38923027  0.99612458    -0.30200
H129        H  0.13103249  0.36968926  0.91795687     0.14000
H130        H  0.13956020  0.41810519  0.03098511     0.14500
C131        C  0.12632507  0.10626605  0.00371575    -0.15000
C132        C  0.15967936  0.11688860  0.96304480    -0.30200
H133        H  0.12038881  0.12496172  0.04590043     0.14000
H134        H  0.16637498  0.09747412  0.92115237     0.14500
C135        C  0.35137313  0.37125079  0.01758854    -0.15000
C136        C  0.39104126  0.37080493  0.98703781    -0.30200
H137        H  0.33859236  0.40059761  0.05165630     0.14000
H138        H  0.40300476  0.34351009  0.95075763     0.14500
O139        O  0.46021547  0.49399909  0.15756951    -0.79500
O140        O  0.48238942  0.98280207  0.88688053    -0.64200
O141        O  0.49089637  0.96294111  0.04122190    -1.10800
C142        C  0.09512566  0.57683943  0.99093661     1.07400
O143        O  0.04175774  0.00615230  0.83636094    -0.77400
O144        O  0.08388311  0.95476054  0.90995862    -0.65000
Ni145      Ni  0.43961978  0.96429031  0.09886700     1.34900
C146        C  0.09036258  0.93985657  0.95748351     0.86100
O147        O  0.45492781  0.91445725  0.96435452    -0.77900
O148        O  0.41059584  0.93153459  0.04933081    -0.88200
C149        C  0.50908716  0.99837281  0.84527930     0.85700
O150        O  0.41605138  0.53141071  0.08095569    -0.66400
O151        O  0.10386850  0.55155242  0.94334207    -0.85700
C152        C  0.40964071  0.54340317  0.03265227     0.86500
C153        C  0.42114755  0.90823901  0.00036848     1.08100
H154        H  0.00282804  0.56297902  0.95441142     0.39900
O155        O  0.01920418  0.52977262  0.95457006    -1.08400
O156        O  0.07246440  0.96365105  0.00519917    -0.65000
Ni157      Ni  0.02758839  0.51833452  0.02960801     1.26300
O158        O  0.42888336  0.51821381  0.98639913    -0.65200
O159        O  0.06107366  0.57431934  0.02741650    -0.77500
C160        C  0.00621555  0.50038767  0.14959453     0.85900
O161        O  0.03454543  0.50683061  0.10540088    -0.64700
Ni162      Ni  0.06964126  0.52781771  0.89540836     1.27400
Ni163      Ni  0.48552993  0.97333231  0.96473250     1.26100
H164        H  0.50759592  0.93010159  0.04249586     0.40400
N165        N  0.31860570  0.74258906  0.98961773    -0.35200
N166        N  0.25169367  0.82757091  0.99861225    -0.55800
N167        N  0.19471260  0.75184731  0.98409297    -0.35200
N168        N  0.26041982  0.66680151  0.98047775    -0.55800
C169        C  0.33665791  0.78264923  0.00714316     0.28400
C170        C  0.34111956  0.69774551  0.99843322     0.28400
C171        C  0.16752827  0.79578585  0.99542042     0.28400
C172        C  0.17181816  0.71088035  0.98715936     0.28400
C173        C  0.28393865  0.85629032  0.99704069     0.37000
C174        C  0.21872821  0.86122845  0.99319674     0.37000
C175        C  0.29600298  0.63376530  0.97269509     0.37000
C176        C  0.23067014  0.63863188  0.96950346     0.37000
C177        C  0.37103867  0.76297973  0.02709965    -0.20500
C178        C  0.37425897  0.70970606  0.02077683    -0.20500
C179        C  0.12687808  0.78266769  0.00565550    -0.20500
C180        C  0.12953400  0.72946680  0.99957201    -0.20500
C181        C  0.27129211  0.90851756  0.99109730    -0.21600
C182        C  0.23003216  0.91164059  0.98862107    -0.21600
C183        C  0.28860719  0.58405297  0.95785022    -0.21600
C184        C  0.24727488  0.58711869  0.95585144    -0.21600
C185        C  0.32395811  0.83655925  0.00396549    -0.16900
C186        C  0.33389830  0.64649428  0.98419785    -0.16900
C187        C  0.18809596  0.65768917  0.97524517    -0.16900
C188        C  0.17814237  0.84765064  0.99419824    -0.16900
H189        H  0.39192704  0.78457449  0.04444445     0.16000
H190        H  0.39859652  0.68323118  0.03151217     0.16000
H191        H  0.09803288  0.80865892  0.01570881     0.16000
H192        H  0.10283195  0.70780835  0.00314092     0.16000
H193        H  0.28976916  0.94107132  0.98893961     0.14300
H194        H  0.21061133  0.94707792  0.98406258     0.14300
H195        H  0.31037936  0.54887380  0.95062739     0.14300
H196        H  0.23114996  0.55475561  0.94664822     0.14300
H197        H  0.29526282  0.74581249  0.96721293     0.27500
H198        H  0.22683184  0.75044773  0.96887577     0.27500
C199        C  0.50022700  0.00048863  0.78803695     0.81600
N200        N  0.48669258  0.95917293  0.76412257    -0.76700
C201        C  0.47723631  0.96392645  0.71212182     0.84000
N202        N  0.48054657  0.00962220  0.68546724    -0.76600
C203        C  0.48132472  0.54990831  0.71239550     0.84100
N204        N  0.49294802  0.54478050  0.76246233    -0.78400
C205        C  0.01586163  0.49992849  0.20625232     0.81600
N206        N  0.01444145  0.96263506  0.23058521    -0.76700
C207        C  0.00933187  0.95912161  0.28801249     0.84000
N208        N  0.01251494  0.49842703  0.31957567    -0.76600
C209        C  0.01262031  0.54448269  0.29357321     0.84100
N210        N  0.01403708  0.54561673  0.23663244    -0.78400
N211        N  0.01425084  0.82738935  0.49895842    -0.35200
N212        N  0.02539129  0.75939092  0.39826120    -0.55800
N213        N  0.02346242  0.67163360  0.47355926    -0.35200
N214        N  0.48487741  0.74627724  0.59713922    -0.55800
C215        C  0.02277639  0.86090550  0.45599527     0.28400
C216        C  0.02144167  0.85027441  0.54615307     0.28400
C217        C  0.03750753  0.64751631  0.42137735     0.28400
C218        C  0.03109978  0.63689328  0.51248429     0.28400
C219        C  0.01193574  0.80483247  0.37774644     0.37000
C220        C  0.01942060  0.72101667  0.36337087     0.37000
C221        C  0.47686584  0.78588711  0.63670732     0.37000
C222        C  0.47123661  0.70386559  0.62471898     0.37000
C223        C  0.03608004  0.90532065  0.47596666    -0.20500
C224        C  0.03546754  0.89849502  0.53268010    -0.20500
C225        C  0.05522951  0.59724711  0.42719533    -0.20500
C226        C  0.05091414  0.59043497  0.48471533    -0.20500
C227        C  0.99702085  0.79506315  0.32983258    -0.21600
C228        C  0.00246445  0.74187534  0.32019164    -0.21600
C229        C  0.45802733  0.76881954  0.68969038    -0.21600
C230        C  0.45394970  0.71686717  0.68199297    -0.21600
C231        C  0.01489389  0.85452316  0.40107338    -0.16900
C232        C  0.48864733  0.83632175  0.62568074    -0.16900
C233        C  0.47732737  0.65318573  0.59901015    -0.17700
C234        C  0.02972605  0.66750524  0.36987320    -0.16900
H235        H  0.04463717  0.93955410  0.45237563     0.16000
H236        H  0.04333695  0.92655077  0.56112457     0.16000
H237        H  0.06847750  0.56783135  0.39363123     0.16000
H238        H  0.06034519  0.55490541  0.50399990     0.16000
H239        H  0.98304391  0.82288606  0.30471355     0.14300
H240        H  0.99396719  0.72090907  0.28619339     0.14300
H241        H  0.44822534  0.79142751  0.72958768     0.14300
H242        H  0.44003975  0.69172980  0.71501785     0.14300
H243        H  0.99887117  0.79427553  0.49810542     0.27500
H244        H  0.00413766  0.70668502  0.48267856     0.27500
C245        C  0.01962971  0.90903413  0.31377936    -0.15000
C246        C  0.00657600  0.90309422  0.37054431    -0.30200
H247        H  0.03788285  0.87717297  0.28613205     0.14000
H248        H  0.48576173  0.94462120  0.41562092     0.14500
C249        C  0.03037995  0.63022886  0.32186172    -0.15000
C250        C  0.00574081  0.59162482  0.33076985    -0.30200
H251        H  0.05232075  0.63303660  0.28102516     0.14000
H252        H  0.45125425  0.59387557  0.38572210     0.14500
C253        C  0.47081057  0.60665291  0.63460661    -0.15000
C254        C  0.48579362  0.59877647  0.68146751    -0.30200
H255        H  0.45547481  0.57616640  0.61896171     0.14000
H256        H  0.03215632  0.61813300  0.67598344     0.14500
C257        C  0.46748075  0.92008949  0.67955439    -0.15000
C258        C  0.48847210  0.87223499  0.67482891    -0.30200
H259        H  0.44882661  0.93034107  0.64885773     0.14000
H260        H  0.02649421  0.86021348  0.68165011     0.14500
C261        C  0.36735337  0.60297233  0.98313095    -0.15000
C262        C  0.37758497  0.58726898  0.03136031    -0.30200
H263        H  0.38170382  0.58206523  0.94277948     0.14000
H264        H  0.36143343  0.60728114  0.07163645     0.14500
C265        C  0.12181518  0.89496845  0.95674838    -0.15000
C266        C  0.14418986  0.89080638  0.99670226    -0.30200
H267        H  0.12912971  0.86698191  0.92077445     0.14000
H268        H  0.13947996  0.92122277  0.02992963     0.14500
C269        C  0.12581870  0.60937761  0.00458088    -0.15000
C270        C  0.15948684  0.61990068  0.96469729    -0.30200
H271        H  0.11953946  0.62752988  0.04708000     0.14000
H272        H  0.16653585  0.60082838  0.92259150     0.14500
C273        C  0.35236892  0.87490273  0.01447126    -0.15000
C274        C  0.39259779  0.87308252  0.98506181    -0.30200
H275        H  0.33950960  0.90546594  0.04718316     0.14000
H276        H  0.40475295  0.84471069  0.94985954     0.14500
O277        O  0.96032694  0.01288275  0.14194024    -0.79500
O278        O  0.98033294  0.48180664  0.87677418    -0.64200
O279        O  0.99317074  0.46293758  0.03014141    -1.10800
C280        C  0.58731740  0.08475143  0.01161238     1.07400
O281        O  0.53558725  0.51358890  0.84877001    -0.77400
O282        O  0.57869833  0.46335167  0.92252979    -0.65000
Ni283      Ni  0.94298768  0.46818100  0.08983632     1.34900
C284        C  0.58679625  0.45033004  0.96982983     0.86100
O285        O  0.95225140  0.41581581  0.95848090    -0.77900
O286        O  0.90974836  0.44074067  0.04272276    -0.88200
C287        C  0.00749399  0.49464834  0.83376917     0.85700
O288        O  0.91244262  0.03668508  0.06672798    -0.66400
O289        O  0.59832768  0.06131645  0.96288935    -0.85700
C290        C  0.91199392  0.05125538  0.01680708     0.86500
C291        C  0.91880195  0.41297299  0.99660115     1.08100
H292        H  0.49848290  0.06487950  0.96925863     0.39900
O293        O  0.51619641  0.03252070  0.96880224    -1.08400
O294        O  0.57013368  0.47618189  0.01672391    -0.65000
Ni295      Ni  0.52294585  0.02001078  0.04432532     1.26300
O296        O  0.93506090  0.02814891  0.97187423    -0.65200
O297        O  0.55338868  0.07833670  0.04654972    -0.77500
C298        C  0.49798460  0.00277928  0.16299723     0.85900
O299        O  0.52796960  0.00729437  0.12033006    -0.64700
Ni300      Ni  0.56722389  0.03553060  0.91172878     1.27400
Ni301      Ni  0.98558665  0.47279997  0.95442356     1.26100
H302        H  0.00887716  0.42939107  0.03153206     0.40400
N303        N  0.80907485  0.24974609  0.02156465    -0.35200
N304        N  0.74656764  0.33567796  0.01419299    -0.55800
N305        N  0.68693048  0.26164026  0.00781953    -0.35200
N306        N  0.74741277  0.17632548  0.02216214    -0.55800
C307        C  0.82891607  0.29090824  0.03179282     0.28400
C308        C  0.82766102  0.20715222  0.04171048     0.28400
C309        C  0.66101475  0.30671041  0.01667933     0.28400
C310        C  0.66266779  0.22193218  0.01555947     0.28400
C311        C  0.78045857  0.36237931  0.00663015     0.37000
C312        C  0.71502123  0.36912836  0.00401492     0.37000
C313        C  0.78129561  0.14224536  0.02243150     0.37000
C314        C  0.71893833  0.14824325  0.00744181     0.37000
C315        C  0.86076906  0.27418549  0.05818663    -0.20500
C316        C  0.85992420  0.22134126  0.06452232    -0.20500
C317        C  0.61977625  0.29550946  0.03044484    -0.20500
C318        C  0.62078275  0.24213123  0.02880948    -0.20500
C319        C  0.77033022  0.41306112  0.99182982    -0.21600
C320        C  0.72884415  0.41737778  0.99035450    -0.21600
C321        C  0.77405991  0.09211163  0.00899677    -0.21600
C322        C  0.73462398  0.09594689  0.99910601    -0.21600
C323        C  0.81945704  0.34301188  0.01715985    -0.16900
C324        C  0.81795455  0.15536436  0.03709585    -0.16900
C325        C  0.67769150  0.16832294  0.00650085    -0.16900
C326        C  0.67344071  0.35755948  0.00921187    -0.16900
H327        H  0.88221647  0.29763386  0.07194183     0.16000
H328        H  0.88083804  0.19618925  0.08355340     0.16000
H329        H  0.59169586  0.32287851  0.03964243     0.16000
H330        H  0.59343957  0.22123342  0.03623906     0.16000
H331        H  0.79055608  0.44393494  0.98367765     0.14300
H332        H  0.71090027  0.45210612  0.98044311     0.14300
H333        H  0.79495637  0.05648297  0.00669904     0.14300
H334        H  0.71891979  0.06368055  0.98854145     0.14300
H335        H  0.78714536  0.24992602  0.99695006     0.27500
H336        H  0.71899458  0.25799786  0.99041592     0.27500
C337        C  0.99867495  0.49755067  0.77649283     0.81600
N338        N  0.98251602  0.45829088  0.75302714    -0.76700
C339        C  0.97696072  0.46237902  0.69878597     0.84000
N340        N  0.98709384  0.50533443  0.66911738    -0.76600
C341        C  0.98410144  0.04646927  0.70093753     0.84100
N342        N  0.99484673  0.04209850  0.75168395    -0.78400
C343        C  0.50507022  0.00558895  0.22080702     0.81600
N344        N  0.51390140  0.46362671  0.24328534    -0.76700
C345        C  0.51137385  0.46312361  0.30029517     0.84000
N346        N  0.49913178  0.00642435  0.33476409    -0.76600
C347        C  0.49431770  0.05207033  0.30882174     0.84100
N348        N  0.49701764  0.05191115  0.25157729    -0.78400
N349        N  0.50121103  0.33374396  0.51620347    -0.35200
N350        N  0.50946687  0.26602205  0.41561899    -0.55800
N351        N  0.50130834  0.17827576  0.49114707    -0.35200
N352        N  0.97943412  0.24391630  0.58783744    -0.55800
C353        C  0.51269323  0.36659747  0.47334886     0.28400
C354        C  0.50777499  0.35572919  0.56423253     0.28400
C355        C  0.51378106  0.15396997  0.43887419     0.28400
C356        C  0.50870860  0.14294942  0.52971675     0.28400
C357        C  0.50015131  0.31275974  0.39424631     0.37000
C358        C  0.50093950  0.22948453  0.38060684     0.37000
C359        C  0.97067378  0.28368405  0.62724743     0.37000
C360        C  0.96681945  0.20112289  0.61556380     0.37000
C361        C  0.52711537  0.40970516  0.49437278    -0.20500
C362        C  0.52406673  0.40281073  0.55160486    -0.20500
C363        C  0.52989059  0.10288232  0.44426339    -0.20500
C364        C  0.52646343  0.09585192  0.50152711    -0.20500
C365        C  0.48525235  0.30567133  0.34573492    -0.21600
C366        C  0.48645644  0.25278069  0.33658835    -0.21600
C367        C  0.95229423  0.26630175  0.68033273    -0.21600
C368        C  0.94935724  0.21395303  0.67281078    -0.21600
C369        C  0.50653352  0.36114777  0.41739308    -0.16900
C370        C  0.98161824  0.33449472  0.61595223    -0.16900
C371        C  0.97425023  0.15036876  0.58994948    -0.17700
C372        C  0.50724090  0.17535301  0.38734973    -0.16900
H373        H  0.53800268  0.44320746  0.47114245     0.16000
H374        H  0.53216269  0.42995162  0.58080069     0.16000
H375        H  0.54215143  0.07333431  0.41055748     0.16000
H376        H  0.53558980  0.05989443  0.52029307     0.16000
H377        H  0.47393459  0.33519155  0.31992794     0.14300
H378        H  0.47686678  0.23371036  0.30228828     0.14300
H379        H  0.94212461  0.28892810  0.72019220     0.14300
H380        H  0.93620239  0.18839858  0.70588545     0.14300
H381        H  0.48465645  0.30183892  0.51441704     0.27500
H382        H  0.48373006  0.21452925  0.50054447     0.27500
C383        C  0.51845872  0.41359396  0.32861204    -0.15000
C384        C  0.50323603  0.40990596  0.38526670    -0.30200
H385        H  0.53508526  0.37980983  0.30263791     0.14000
H386        H  0.98512944  0.44056027  0.40020110     0.14500
C387        C  0.50790785  0.13921961  0.33821183    -0.15000
C388        C  0.48386156  0.09987293  0.34541643    -0.30200
H389        H  0.53076729  0.14229932  0.29823182     0.14000
H390        H  0.94878727  0.08641784  0.38158954     0.14500
C391        C  0.96951201  0.10355397  0.62544173    -0.15000
C392        C  0.98535389  0.09644817  0.67170887    -0.30200
H393        H  0.95534044  0.07194677  0.60970513     0.14000
H394        H  0.51857354  0.12716496  0.69067360     0.14500
C395        C  0.96390883  0.41993784  0.66779754    -0.15000
C396        C  0.98182299  0.37049514  0.66497909    -0.30200
H397        H  0.94664349  0.43177506  0.63598556     0.14000
H398        H  0.51299465  0.36476315  0.69829171     0.14500
C399        C  0.84782275  0.11217797  0.04848984    -0.15000
C400        C  0.88336366  0.09694287  0.00947723    -0.30200
H401        H  0.83882009  0.09052170  0.08696133     0.14000
H402        H  0.89015195  0.11668707  0.96933584     0.14500
C403        C  0.61810294  0.40529444  0.96996271    -0.15000
C404        C  0.64077878  0.40185510  0.00959679    -0.30200
H405        H  0.62422611  0.37574192  0.93561934     0.14000
H406        H  0.63722197  0.43350057  0.04116910     0.14500
C407        C  0.61528808  0.11957238  0.02868528    -0.15000
C408        C  0.64992588  0.13147546  0.99173801    -0.30200
H409        H  0.60687064  0.13680987  0.07174017     0.14000
H410        H  0.65928172  0.11290309  0.94932709     0.14500
C411        C  0.84949014  0.38119703  0.02077601    -0.15000
C412        C  0.88872307  0.37698151  0.98764847    -0.30200
H413        H  0.83846297  0.41389337  0.05134931     0.14000
H414        H  0.89892846  0.34598932  0.95486360     0.14500
O415        O  0.96937676  0.49208241  0.14738971    -0.79500
O416        O  0.97874037  0.98261543  0.87642955    -0.64200
O417        O  0.98723885  0.96589334  0.03057613    -1.10800
C418        C  0.58329166  0.58594561  0.00418422     1.07400
O419        O  0.54284829  0.01512259  0.85077975    -0.77400
O420        O  0.58645428  0.96525407  0.92403987    -0.65000
Ni421      Ni  0.93686198  0.97315379  0.09065831     1.34900
C422        C  0.59324485  0.94954151  0.97118440     0.86100
O423        O  0.94549826  0.92191766  0.95727425    -0.77900
O424        O  0.90775115  0.93272988  0.04767806    -0.88200
C425        C  0.00627734  0.99326665  0.83320350     0.85700
O426        O  0.92759683  0.53786384  0.07124014    -0.66400
O427        O  0.59371216  0.55923698  0.95745440    -0.85700
C428        C  0.91931280  0.54958878  0.02384762     0.86500
C429        C  0.91448894  0.91311596  0.99707510     1.08100
H430        H  0.49285662  0.56508072  0.96550708     0.39900
O431        O  0.51083975  0.53315389  0.96616969    -1.08400
O432        O  0.57436342  0.97212975  0.01931497    -0.65000
Ni433      Ni  0.51867115  0.52327844  0.04152939     1.26300
O434        O  0.93552552  0.52260159  0.97762280    -0.65200
O435        O  0.54891573  0.58263987  0.03985035    -0.77500
C436        C  0.49602259  0.50567110  0.16108818     0.85900
O437        O  0.52478313  0.51302125  0.11771613    -0.64700
Ni438      Ni  0.56141923  0.53385111  0.90799392     1.27400
Ni439      Ni  0.98210728  0.97499324  0.95409221     1.26100
H440        H  0.00141562  0.93149670  0.03264718     0.40400
N441        N  0.81444375  0.73643802  0.00054080    -0.35200
N442        N  0.74876349  0.82279679  0.00812967    -0.55800
N443        N  0.68883558  0.74876500  0.00431145    -0.35200
N444        N  0.75573552  0.66232178  0.99085674    -0.55800
C445        C  0.83781678  0.77702731  0.99508213     0.28400
C446        C  0.84110961  0.69233635  0.98552019     0.28400
C447        C  0.66605315  0.79374860  0.99638423     0.28400
C448        C  0.66972923  0.70884017  0.98886063     0.28400
C449        C  0.77952579  0.84989977  0.01801002     0.37000
C450        C  0.71336154  0.85660427  0.01797169     0.37000
C451        C  0.78875010  0.62810084  0.99484408     0.37000
C452        C  0.72253135  0.63459745  0.99710172     0.37000
C453        C  0.87991877  0.75808465  0.97695084    -0.20500
C454        C  0.88186811  0.70497195  0.96998834    -0.20500
C455        C  0.63171289  0.78194633  0.97667370    -0.20500
C456        C  0.63447023  0.72865654  0.97095105    -0.20500
C457        C  0.76375810  0.90150982  0.03270200    -0.21600
C458        C  0.72199265  0.90575193  0.03258768    -0.21600
C459        C  0.77654098  0.57836653  0.00319072    -0.21600
C460        C  0.73459247  0.58245910  0.00454685    -0.21600
C461        C  0.82223701  0.82995389  0.01030021    -0.16900
C462        C  0.83007529  0.64070395  0.98917610    -0.16900
C463        C  0.68206516  0.65497314  0.99282012    -0.16900
C464        C  0.67423254  0.84491803  0.00934573    -0.16900
H465        H  0.90699348  0.77940221  0.96998365     0.16000
H466        H  0.91032888  0.67861364  0.95618278     0.16000
H467        H  0.60685642  0.80844483  0.96730698     0.16000
H468        H  0.61263394  0.70714385  0.95550798     0.16000
H469        H  0.78074266  0.93322977  0.04128659     0.14300
H470        H  0.70068122  0.94130721  0.04114544     0.14300
H471        H  0.79579345  0.54281850  0.00782850     0.14300
H472        H  0.71524527  0.55062127  0.01026644     0.14300
H473        H  0.78286229  0.73816107  0.02034181     0.27500
H474        H  0.71316737  0.74524468  0.02501727     0.27500
C475        C  0.99602000  0.99529753  0.77700904     0.81600
N476        N  0.98982491  0.95147900  0.74885601    -0.76700
C477        C  0.98007270  0.95584088  0.69696462     0.84000
N478        N  0.97574236  0.00345550  0.67481481    -0.76600
C479        C  0.00487178  0.54322415  0.69103565     0.84100
N480        N  0.01101698  0.53882568  0.74446949    -0.78400
C481        C  0.50401911  0.50888534  0.21839168     0.81600
N482        N  0.51118569  0.96015611  0.24738624    -0.76700
C483        C  0.50849069  0.96048933  0.30440567     0.84000
N484        N  0.49869074  0.50795781  0.33217113    -0.76600
C485        C  0.48962191  0.55337375  0.30810583     0.84100
N486        N  0.49188599  0.55402948  0.25101797    -0.78400
N487        N  0.49236502  0.83346818  0.52241881    -0.35200
N488        N  0.49673613  0.76564717  0.42354071    -0.55800
N489        N  0.48307243  0.67919353  0.49977783    -0.35200
N490        N  0.01862613  0.73888893  0.57265577    -0.55800
C491        C  0.50703374  0.86384961  0.47842770     0.28400
C492        C  0.50202381  0.85346851  0.56931805     0.28400
C493        C  0.49575590  0.65412161  0.44789688     0.28400
C494        C  0.48910870  0.64407560  0.53911592     0.28400
C495        C  0.48967747  0.81268696  0.40143545     0.37000
C496        C  0.48664801  0.73006296  0.38892479     0.37000
C497        C  0.00522597  0.77842756  0.61211822     0.37000
C498        C  0.00668744  0.69498545  0.59877914     0.37000
C499        C  0.52673472  0.90316378  0.49738020    -0.20500
C500        C  0.52372973  0.89648757  0.55466283    -0.20500
C501        C  0.51046297  0.60268284  0.45443886    -0.20500
C502        C  0.50595472  0.59624748  0.51195396    -0.20500
C503        C  0.47424861  0.80681117  0.35317439    -0.21600
C504        C  0.47315403  0.75423976  0.34465233    -0.21600
C505        C  0.98514153  0.75978045  0.66365426    -0.21600
C506        C  0.98533415  0.70697291  0.65495335    -0.21600
C507        C  0.49936129  0.85986690  0.42328280    -0.16900
C508        C  0.01132448  0.83102350  0.60208579    -0.16900
C509        C  0.01645432  0.64443369  0.57232982    -0.17700
C510        C  0.49169427  0.67586779  0.39547054    -0.16900
H511        H  0.54124479  0.93393590  0.47266173     0.16000
H512        H  0.53555308  0.92111736  0.58253506     0.16000
H513        H  0.52296927  0.57263683  0.42137704     0.16000
H514        H  0.51421184  0.56035597  0.53151511     0.16000
H515        H  0.46437610  0.83690581  0.32686460     0.14300
H516        H  0.46289611  0.73594716  0.31046747     0.14300
H517        H  0.97073411  0.78214265  0.70285375     0.14300
H518        H  0.97076271  0.68090383  0.68640719     0.14300
H519        H  0.47212277  0.80515875  0.52200913     0.27500
H520        H  0.46684769  0.71635612  0.50836266     0.27500
C521        C  0.51304538  0.91103613  0.33382523    -0.15000
C522        C  0.49865145  0.90872645  0.39075513    -0.30200
H523        H  0.52731091  0.87606271  0.30821043     0.14000
H524        H  0.98949408  0.93625052  0.39731117     0.14500
C525        C  0.49610521  0.64074801  0.34421994    -0.15000
C526        C  0.47432046  0.59947304  0.34661080    -0.30200
H527        H  0.52015672  0.64643314  0.30619628     0.14000
H528        H  0.98486897  0.58965515  0.37269770     0.14500
C529        C  0.00805741  0.59695459  0.60622155    -0.15000
C530        C  0.01676578  0.58940635  0.65758541    -0.30200
H531        H  0.99457949  0.56664842  0.58707469     0.14000
H532        H  0.50263983  0.62793053  0.69645125     0.14500
C533        C  0.97872226  0.91065119  0.65952623    -0.15000
C534        C  0.00627607  0.86765091  0.65237238    -0.30200
H535        H  0.95948016  0.91707364  0.62880971     0.14000
H536        H  0.50818237  0.86074684  0.70382241     0.14500
C537        C  0.86384474  0.59710595  0.98593116    -0.15000
C538        C  0.88814180  0.59455812  0.02355233    -0.30200
H539        H  0.86652791  0.56503615  0.95513111     0.14000
H540        H  0.88272233  0.62444571  0.05747757     0.14500
C541        C  0.62562467  0.90472299  0.96873693    -0.15000
C542        C  0.64015823  0.88891407  0.01411370    -0.30200
H543        H  0.63918412  0.88496494  0.92748586     0.14000
H544        H  0.62882991  0.91024049  0.05486640     0.14500
C545        C  0.61281760  0.62053552  0.01726882    -0.15000
C546        C  0.65256173  0.61705060  0.98601369    -0.30200
H547        H  0.60173775  0.65018189  0.05140975     0.14000
H548        H  0.66422332  0.58542882  0.95420736     0.14500
C549        C  0.85157062  0.86614096  0.02280495    -0.15000
C550        C  0.88471651  0.87885424  0.98332274    -0.30200
H551        H  0.84476477  0.88340176  0.06574319     0.14000
H552        H  0.89016622  0.86349199  0.93973460     0.14500
loop_ 
_geom_bond_atom_site_label_1 
_geom_bond_atom_site_label_2 
_geom_bond_distance 
_geom_bond_site_symmetry_2 
_ccdc_geom_bond_type 
O1         Ni145   1.936       .  S
O1          C298   1.272   1_565  A
O2          Ni25   1.916       .  S
O2           C11   1.268       .  A
O3           Ni7   1.917       .  S
O3          Ni25   1.911   1_554  S
O3         Ni433   1.912       .  S
O3           H26   0.967       .  S
C4           O21   1.268   1_556  A
C4           O13   1.271       .  A
C4          C131   1.478   1_556  S
O5         Ni162   1.914       .  S
O5          C287   1.269       .  A
O6         Ni162   1.904       .  S
O6            C8   1.271       .  A
Ni7          O10   1.933       .  S
Ni7         O139   1.932       .  S
Ni7         O150   1.900       .  S
C8           O18   1.280   1_556  A
C8          C127   1.472       .  S
O9          Ni25   1.899       .  S
O9           C15   1.265   1_556  A
O10          C15   1.273       .  A
C11         O281   1.269       .  A
C11          C61   1.469       .  S
O12        Ni145   1.900   1_545  S
O12          C14   1.269       .  A
O13         Ni24   1.931       .  S
C14          O20   1.278   1_554  A
C14         C124   1.473       .  S
C15         C136   1.469   1_554  S
H16          O17   0.966       .  S
O17         Ni19   1.922   1_556  S
O17         Ni24   1.921       .  S
O17        Ni439   1.936   1_445  S
O18        Ni157   1.948       .  S
Ni19         O23   1.922       .  S
Ni19         O21   1.911       .  S
Ni19        O156   1.944   1_545  S
Ni19        O417   1.904   1_445  S
O20        Ni163   1.948   1_545  S
C22          O23   1.270   1_655  A
C22         O277   1.272       .  A
C22          C67   1.475   1_655  S
Ni24        O143   1.927       .  S
Ni24        O144   1.904   1_545  S
Ni25        O158   1.948       .  S
Ni25        O431   1.924       .  S
N27          C32   1.355       .  A
N27          C31   1.353   1_556  A
N27          H59   1.036       .  S
N28          C35   1.351       .  A
N28          C36   1.352       .  A
N29          C34   1.355       .  A
N29          C33   1.354       .  A
N29          H60   1.034       .  S
N30          C37   1.353       .  A
N30          C38   1.353       .  A
C31          C39   1.386       .  A
C31          C47   1.416       .  A
C32          C48   1.419       .  A
C32          C40   1.389   1_556  A
C33          C41   1.386       .  A
C33          C50   1.418       .  A
C34          C49   1.422       .  A
C34          C42   1.390       .  A
C35          C47   1.412   1_556  A
C35          C43   1.387       .  A
C36          C50   1.415       .  A
C36          C44   1.388       .  A
C37          C45   1.386       .  A
C37          C48   1.416       .  A
C38          C46   1.388       .  A
C38          C49   1.418       .  A
C39          C40   1.368       .  A
C39          H51   1.082       .  S
C40          H52   1.080       .  S
C41          C42   1.371       .  A
C41          H53   1.082   1_556  S
C42          H54   1.080       .  S
C43          C44   1.370       .  A
C43          H55   1.083       .  S
C44          H56   1.083       .  S
C45          C46   1.373       .  A
C45          H57   1.082       .  S
C46          H58   1.082       .  S
C47         C135   1.483       .  S
C48         C123   1.489       .  S
C49         C132   1.489       .  S
C50         C128   1.487       .  S
C61          N62   1.365       .  A
C61         N204   1.360       .  A
N62          C63   1.365       .  A
C63         C119   1.471       .  S
C63          N64   1.352       .  A
N64         C203   1.353       .  A
C65         C116   1.480       .  S
C65          N66   1.358       .  A
C65         N202   1.351       .  A
N66         C199   1.364       .  A
C67          N72   1.366   1_455  A
C67         N206   1.365   1_545  A
N68          C69   1.359       .  A
N68         C205   1.364       .  A
C69         C107   1.479       .  S
C69         N208   1.350       .  A
N70          C71   1.350       .  A
N70         C207   1.353   1_645  A
C71         C112   1.470       .  S
C71          N72   1.362       .  A
N73          C78   1.356       .  A
N73          C77   1.356   1_655  A
N73         H105   1.041       .  S
N74          C81   1.350       .  A
N74          C82   1.350       .  A
N75          C80   1.354       .  A
N75          C79   1.356       .  A
N75         H106   1.042       .  S
N76          C83   1.350       .  A
N76          C84   1.350       .  A
C77          C85   1.387       .  A
C77          C93   1.419   1_455  A
C78          C86   1.388   1_655  A
C78         C370   1.422       .  A
C79          C87   1.387   1_655  A
C79          C96   1.419       .  A
C80          C88   1.387   1_655  A
C80         C371   1.415       .  A
C81          C93   1.413       .  A
C81          C89   1.388       .  A
C82          C96   1.405       .  A
C82          C90   1.383       .  A
C83          C91   1.383       .  A
C83          C94   1.405       .  A
C84          C92   1.388       .  A
C84          C95   1.413       .  A
C85          C86   1.375       .  A
C85          H97   1.082       .  S
C86          H98   1.082       .  S
C87          C88   1.375       .  A
C87          H99   1.082       .  S
C88         H100   1.083       .  S
C89          C90   1.373       .  A
C89         H101   1.081       .  S
C90         H102   1.082       .  S
C91          C92   1.372       .  A
C91         H103   1.082       .  S
C92         H104   1.081       .  S
C93         C108   1.495       .  S
C94         C120   1.490       .  S
C94         C354   1.419       .  A
C95         C115   1.493       .  S
C95         C356   1.418       .  A
C96         C111   1.494       .  S
C107        C108   1.351   1_455  D
C107        H109   1.085       .  S
C108        H386   1.087       .  S
H110        C384   1.087       .  S
C111        C112   1.340       .  D
C111        H113   1.087   1_655  S
C112        H390   1.087       .  S
H114        C388   1.087       .  S
C115        C116   1.350       .  D
C115        H117   1.087       .  S
C116        H394   1.086       .  S
H118        C392   1.086   1_455  S
C119        C120   1.340       .  D
C119        H121   1.088       .  S
C120        H398   1.086       .  S
H122        C396   1.086   1_455  S
C123        C124   1.343   1_556  D
C123        H125   1.086       .  S
C124        H126   1.087       .  S
C127        C128   1.343       .  D
C127        H129   1.087       .  S
C128        H130   1.087   1_556  S
C131        C132   1.347   1_554  D
C131        H133   1.087       .  S
C132        H134   1.086       .  S
C135        C136   1.344   1_554  D
C135        H137   1.087       .  S
C136        H138   1.087       .  S
O139        C436   1.272       .  A
O140       Ni163   1.923       .  S
O140        C149   1.271       .  A
O141       Ni145   1.921       .  S
O141       Ni163   1.915   1_554  S
O141       Ni295   1.910   1_565  S
O141        H164   0.966       .  S
C142        O159   1.264   1_556  A
C142        O151   1.270       .  A
C142        C269   1.472   1_556  S
O143        C425   1.270   1_545  A
O144        C146   1.272       .  A
Ni145       O148   1.934       .  S
C146        O156   1.280   1_556  A
C146        C265   1.470       .  S
O147       Ni163   1.910       .  S
O147        C153   1.270   1_556  A
O148        C153   1.274       .  A
C149        O419   1.271   1_565  A
C149        C199   1.478   1_565  S
O150        C152   1.269       .  A
O151       Ni162   1.931       .  S
C152        O158   1.279   1_554  A
C152        C262   1.473       .  S
C153        C274   1.476   1_554  S
H154        O155   0.964       .  S
O155       Ni301   1.931   1_455  S
O155       Ni157   1.917   1_556  S
O155       Ni162   1.919       .  S
Ni157       O161   1.919       .  S
Ni157       O159   1.901       .  S
Ni157       O279   1.914   1_455  S
C160        O415   1.270   1_455  A
C160        O161   1.269       .  A
C160        C205   1.475       .  S
Ni163       O293   1.931   1_565  S
N165        C170   1.355       .  A
N165        C169   1.355   1_556  A
N165        H197   1.038       .  S
N166        C173   1.353       .  A
N166        C174   1.352       .  A
N167        C172   1.354       .  A
N167        C171   1.353       .  A
N167        H198   1.035       .  S
N168        C175   1.352       .  A
N168        C176   1.352       .  A
C169        C177   1.386       .  A
C169        C185   1.417       .  A
C170        C186   1.418       .  A
C170        C178   1.388   1_556  A
C171        C179   1.386   1_556  A
C171        C188   1.416       .  A
C172        C187   1.420       .  A
C172        C180   1.390       .  A
C173        C185   1.414   1_556  A
C173        C181   1.387       .  A
C174        C188   1.415       .  A
C174        C182   1.387       .  A
C175        C183   1.387       .  A
C175        C186   1.413       .  A
C176        C184   1.387       .  A
C176        C187   1.415       .  A
C177        C178   1.370       .  A
C177        H189   1.082       .  S
C178        H190   1.080       .  S
C179        C180   1.369   1_554  A
C179        H191   1.082       .  S
C180        H192   1.079   1_556  S
C181        C182   1.372       .  A
C181        H193   1.083       .  S
C182        H194   1.083       .  S
C183        C184   1.372       .  A
C183        H195   1.082       .  S
C184        H196   1.082       .  S
C185        C273   1.490       .  S
C186        C261   1.486       .  S
C187        C270   1.485       .  S
C188        C266   1.485       .  S
C199        N200   1.368   1_545  A
N200        C201   1.366       .  A
C201        C257   1.473       .  S
C201        N202   1.351   1_565  A
C203        C254   1.475       .  S
C203        N204   1.355       .  A
C205        N210   1.367       .  A
N206        C207   1.362       .  A
C207        C245   1.482       .  S
N208        C209   1.350       .  A
C209        C250   1.467       .  S
C209        N210   1.365       .  A
N211        C216   1.356       .  A
N211        C215   1.355       .  A
N211        H243   1.040   1_455  S
N212        C219   1.351       .  A
N212        C220   1.350       .  A
N213        C218   1.354       .  A
N213        C217   1.354       .  A
N213        H244   1.040       .  S
N214        C221   1.351       .  A
N214        C222   1.350       .  A
C215        C223   1.388       .  A
C215        C231   1.420       .  A
C216        C508   1.421       .  A
C216        C224   1.387       .  A
C217        C225   1.388       .  A
C217        C234   1.419       .  A
C218        C509   1.415       .  A
C218        C226   1.386       .  A
C219        C231   1.414       .  A
C219        C227   1.388   1_455  A
C220        C234   1.406       .  A
C220        C228   1.383       .  A
C221        C229   1.384       .  A
C221        C232   1.406       .  A
C222        C230   1.388       .  A
C222        C233   1.413       .  A
C223        C224   1.378       .  A
C223        H235   1.083       .  S
C224        H236   1.082       .  S
C225        C226   1.377       .  A
C225        H237   1.082       .  S
C226        H238   1.083       .  S
C227        C228   1.374   1_655  A
C227        H239   1.081       .  S
C228        H240   1.082   1_455  S
C229        C230   1.374       .  A
C229        H241   1.082       .  S
C230        H242   1.082       .  S
C231        C246   1.494       .  S
C232        C258   1.494       .  S
C232        C492   1.419       .  A
C233        C253   1.489       .  S
C233        C494   1.416       .  A
C234        C249   1.490       .  S
C245        C246   1.352       .  D
C245        H247   1.085       .  S
C246        H524   1.087   1_455  S
H248        C522   1.087       .  S
C249        C250   1.338       .  D
C249        H251   1.086       .  S
C250        H528   1.088   1_455  S
H252        C526   1.087       .  S
C253        C254   1.346       .  D
C253        H255   1.087       .  S
C254        H532   1.086       .  S
H256        C530   1.086       .  S
C257        C258   1.340       .  D
C257        H259   1.088       .  S
C258        H536   1.086       .  S
H260        C534   1.086       .  S
C261        C262   1.342   1_556  D
C261        H263   1.086       .  S
C262        H264   1.087       .  S
C265        C266   1.344       .  D
C265        H267   1.087       .  S
C266        H268   1.087   1_556  S
C269        C270   1.344   1_554  D
C269        H271   1.087       .  S
C270        H272   1.087       .  S
C273        C274   1.348   1_554  D
C273        H275   1.087       .  S
C274        H276   1.087       .  S
O277       Ni421   1.940   1_545  S
O278       Ni301   1.936       .  S
O278        C287   1.275   1_655  A
O279       Ni283   1.916       .  S
O279       Ni301   1.918   1_554  S
O279        H302   0.966   1_655  S
C280        O297   1.263       .  A
C280        O289   1.271   1_554  A
C280        C407   1.473       .  S
O281       Ni438   1.920       .  S
O282       Ni438   1.909       .  S
O282        C284   1.273       .  A
Ni283       O415   1.930       .  S
Ni283       O286   1.930       .  S
Ni283       O426   1.904       .  S
C284        O294   1.281   1_556  A
C284        C403   1.473       .  S
O285       Ni301   1.915       .  S
O285        C291   1.271       .  A
O286        C291   1.273   1_554  A
C287        C337   1.479   1_455  S
O288       Ni421   1.906   1_545  S
O288        C290   1.269       .  A
O289       Ni300   1.933       .  S
C290        O296   1.270   1_554  A
C290        C400   1.471       .  S
C291        C412   1.477       .  S
H292        O293   0.966       .  S
O293       Ni295   1.915   1_556  S
O293       Ni300   1.920       .  S
O294       Ni433   1.949       .  S
Ni295       O432   1.959   1_545  S
Ni295       O299   1.909       .  S
Ni295       O297   1.900       .  S
O296       Ni439   1.925   1_545  S
C298        O299   1.267       .  A
C298        C343   1.470       .  S
Ni300       O419   1.926       .  S
Ni300       O420   1.907   1_545  S
Ni301       O434   1.950       .  S
N303        C308   1.354       .  A
N303        C307   1.353       .  A
N303        H335   1.039   1_554  S
N304        C311   1.352       .  A
N304        C312   1.352       .  A
N305        C310   1.353       .  A
N305        C309   1.353       .  A
N305        H336   1.038   1_554  S
N306        C313   1.351       .  A
N306        C314   1.351       .  A
C307        C315   1.388       .  A
C307        C323   1.415       .  A
C308        C324   1.414       .  A
C308        C316   1.387       .  A
C309        C317   1.386       .  A
C309        C326   1.415       .  A
C310        C325   1.415       .  A
C310        C318   1.388       .  A
C311        C323   1.413       .  A
C311        C319   1.387   1_554  A
C312        C326   1.413       .  A
C312        C320   1.386   1_554  A
C313        C321   1.386       .  A
C313        C324   1.410       .  A
C314        C322   1.387   1_554  A
C314        C325   1.412       .  A
C315        C316   1.375       .  A
C315        H327   1.082       .  S
C316        H328   1.082       .  S
C317        C318   1.373       .  A
C317        H329   1.082       .  S
C318        H330   1.080       .  S
C319        C320   1.372       .  A
C319        H331   1.082       .  S
C320        H332   1.082       .  S
C321        C322   1.372   1_554  A
C321        H333   1.083       .  S
C322        H334   1.082       .  S
C323        C411   1.484       .  S
C324        C399   1.482       .  S
C325        C408   1.482   1_554  S
C326        C404   1.486       .  S
C337        N338   1.367       .  A
C337        N480   1.363   1_655  A
N338        C339   1.367       .  A
C339        C395   1.473       .  S
C339        N340   1.355       .  A
N340        C479   1.353   1_655  A
C341        C392   1.476       .  S
C341        N478   1.353       .  A
C341        N342   1.355       .  A
N342        C475   1.360   1_545  A
C343        N482   1.362   1_545  A
C343        N348   1.366       .  A
N344        C481   1.363       .  A
N344        C345   1.359       .  A
C345        C383   1.479       .  S
C345        N484   1.352       .  A
N346        C483   1.353   1_545  A
N346        C347   1.352       .  A
C347        C388   1.469       .  S
C347        N348   1.363       .  A
N349        C354   1.356       .  A
N349        C353   1.355       .  A
N349        H381   1.040       .  S
N350        C357   1.351       .  A
N350        C358   1.351       .  A
N351        C356   1.355       .  A
N351        C355   1.355       .  A
N351        H382   1.040       .  S
N352        C359   1.350       .  A
N352        C360   1.350       .  A
C353        C361   1.388       .  A
C353        C369   1.419       .  A
C354        C362   1.387       .  A
C355        C363   1.388       .  A
C355        C372   1.420       .  A
C356        C364   1.387       .  A
C357        C369   1.415       .  A
C357        C365   1.389       .  A
C358        C372   1.406       .  A
C358        C366   1.383       .  A
C359        C367   1.385       .  A
C359        C370   1.408       .  A
C360        C368   1.388       .  A
C360        C371   1.412       .  A
C361        C362   1.376       .  A
C361        H373   1.082       .  S
C362        H374   1.082       .  S
C363        C364   1.376       .  A
C363        H375   1.082       .  S
C364        H376   1.082       .  S
C365        C366   1.373       .  A
C365        H377   1.081       .  S
C366        H378   1.082       .  S
C367        C368   1.375       .  A
C367        H379   1.082       .  S
C368        H380   1.082       .  S
C369        C384   1.493       .  S
C370        C396   1.496       .  S
C371        C391   1.489       .  S
C372        C387   1.493       .  S
C383        C384   1.350       .  D
C383        H385   1.085       .  S
C387        C388   1.340       .  D
C387        H389   1.087       .  S
C391        C392   1.346       .  D
C391        H393   1.087       .  S
C395        C396   1.342       .  D
C395        H397   1.087       .  S
C399        C400   1.340       .  D
C399        H401   1.086       .  S
C400        H402   1.087   1_554  S
C403        C404   1.344   1_556  D
C403        H405   1.087       .  S
C404        H406   1.087       .  S
C407        C408   1.342   1_554  D
C407        H409   1.087       .  S
C408        H410   1.086       .  S
C411        C412   1.347   1_554  D
C411        H413   1.087       .  S
C412        H414   1.086       .  S
O416       Ni439   1.915       .  S
O416        C425   1.267   1_655  A
O417       Ni421   1.925       .  S
O417       Ni439   1.908   1_554  S
O417        H440   0.966   1_655  S
C418        O435   1.266       .  A
C418        O427   1.270   1_554  A
C418        C545   1.471       .  S
O420        C422   1.273       .  A
Ni421       O424   1.932       .  S
C422        O432   1.282   1_556  A
C422        C541   1.481       .  S
O423       Ni439   1.909       .  S
O423        C429   1.271       .  A
O424        C429   1.277   1_554  A
C425        C475   1.473   1_455  S
O426        C428   1.270       .  A
O427       Ni438   1.927       .  S
C428        O434   1.280   1_554  A
C428        C538   1.470       .  S
C429        C550   1.477       .  S
H430        O431   0.966       .  S
O431       Ni433   1.912   1_556  S
O431       Ni438   1.916       .  S
Ni433       O437   1.915       .  S
Ni433       O435   1.908       .  S
C436        O437   1.269       .  A
C436        C481   1.470       .  S
N441        C446   1.353   1_554  A
N441        C445   1.353   1_554  A
N441        H473   1.037       .  S
N442        C449   1.354       .  A
N442        C450   1.355       .  A
N443        C448   1.353   1_554  A
N443        C447   1.356   1_554  A
N443        H474   1.038       .  S
N444        C451   1.352       .  A
N444        C452   1.351       .  A
C445        C453   1.390       .  A
C445        C461   1.419   1_556  A
C446        C462   1.414       .  A
C446        C454   1.385       .  A
C447        C455   1.388       .  A
C447        C464   1.419   1_556  A
C448        C463   1.417       .  A
C448        C456   1.386       .  A
C449        C461   1.419       .  A
C449        C457   1.387       .  A
C450        C464   1.418       .  A
C450        C458   1.386       .  A
C451        C459   1.386   1_556  A
C451        C462   1.412       .  A
C452        C460   1.388   1_556  A
C452        C463   1.412       .  A
C453        C454   1.370       .  A
C453        H465   1.079       .  S
C454        H466   1.082       .  S
C455        C456   1.370       .  A
C455        H467   1.080       .  S
C456        H468   1.082       .  S
C457        C458   1.373       .  A
C457        H469   1.082       .  S
C458        H470   1.082       .  S
C459        C460   1.371       .  A
C459        H471   1.082       .  S
C460        H472   1.082       .  S
C461        C549   1.489       .  S
C462        C537   1.487       .  S
C463        C546   1.484       .  S
C464        C542   1.496       .  S
C475        N476   1.368       .  A
N476        C477   1.367       .  A
C477        C533   1.476       .  S
C477        N478   1.352   1_565  A
C479        C530   1.482       .  S
C479        N480   1.356       .  A
C481        N486   1.366       .  A
N482        C483   1.358       .  A
C483        C521   1.478       .  S
N484        C485   1.350       .  A
C485        C526   1.469       .  S
C485        N486   1.362       .  A
N487        C492   1.355       .  A
N487        C491   1.354       .  A
N487        H519   1.041       .  S
N488        C495   1.351       .  A
N488        C496   1.351       .  A
N489        C494   1.354       .  A
N489        C493   1.356       .  A
N489        H520   1.041       .  S
N490        C497   1.351       .  A
N490        C498   1.352       .  A
C491        C499   1.387       .  A
C491        C507   1.416       .  A
C492        C500   1.387       .  A
C493        C501   1.388       .  A
C493        C510   1.419       .  A
C494        C502   1.387       .  A
C495        C507   1.415       .  A
C495        C503   1.389       .  A
C496        C510   1.405       .  A
C496        C504   1.382       .  A
C497        C505   1.383   1_455  A
C497        C508   1.407       .  A
C498        C506   1.388   1_455  A
C498        C509   1.416       .  A
C499        C500   1.377       .  A
C499        H511   1.083       .  S
C500        H512   1.082       .  S
C501        C502   1.375       .  A
C501        H513   1.082       .  S
C502        H514   1.083       .  S
C503        C504   1.373       .  A
C503        H515   1.081       .  S
C504        H516   1.082       .  S
C505        C506   1.374       .  A
C505        H517   1.082       .  S
C506        H518   1.081       .  S
C507        C522   1.493       .  S
C508        C534   1.495       .  S
C509        C529   1.494       .  S
C510        C525   1.493       .  S
C521        C522   1.349       .  D
C521        H523   1.085       .  S
C525        C526   1.339       .  D
C525        H527   1.087       .  S
C529        C530   1.348       .  D
C529        H531   1.087   1_455  S
C533        C534   1.341   1_655  D
C533        H535   1.088       .  S
C537        C538   1.343   1_556  D
C537        H539   1.087       .  S
C538        H540   1.087       .  S
C541        C542   1.346   1_556  D
C541        H543   1.087       .  S
C542        H544   1.086       .  S
C545        C546   1.346   1_554  D
C545        H547   1.087       .  S
C546        H548   1.087       .  S
C549        C550   1.345   1_554  D
C549        H551   1.086       .  S
C550        H552   1.087       .  S
