geometry optimzed in LAMMPS
_audit_creation_date              2020-11-30 
_audit_creation_method            'lammps2cif' 
_symmetry_space_group_name_H-M    'P1' 
_symmetry_Int_Tables_number       1 
_symmetry_cell_setting            triclinic 
loop_ 
_symmetry_equiv_pos_as_xyz 
  x,y,z 
_cell_length_a                    31.57576357082465 
_cell_length_b                    31.58518061736747 
_cell_length_c                    50.823499994677924 
_cell_angle_alpha                 89.98589448753938 
_cell_angle_beta                  89.73927345097165 
_cell_angle_gamma                 89.80623317205936 
loop_ 
_atom_site_label 
_atom_site_type_symbol 
_atom_site_fract_x 
_atom_site_fract_y 
_atom_site_fract_z 
_atom_site_charge 
C1          C  0.18021333  0.07379983  0.20786042     0.42210
N2          N  0.20825948  0.10695064  0.17559718     0.01100
C3          C  0.25330926  0.05406245  0.04645775    -0.06780
H4          H  0.33509800  0.97132746  0.10430605     0.06590
C5          C  0.39849021  0.12480807  0.14182637    -0.07130
Co6        Co  0.20641134  0.06234920  0.12351245     0.74180
N7          N  0.28920473  0.01932361  0.11524797    -0.26310
Co8        Co  0.30473908  0.07579903  0.09390116     0.74070
C9          C  0.41742613  0.08349967  0.13664931     0.42310
N10         N  0.31080896  0.17577651  0.16575794     0.00710
N11         N  0.35688917  0.08731736  0.11770446     0.00820
N12         N  0.19145873  0.03403399  0.06493405    -0.47150
H13         H  0.16452174  0.01667036  0.18097770     0.06580
N14         N  0.25245093  0.01640176  0.12772409     0.01110
N15         N  0.31736176  0.13280246  0.07248336     0.00850
C16         C  0.32702208  0.18225963  0.04360510     0.42450
N17         N  0.27383439  0.17164189  0.17742724    -0.25760
C18         C  0.12248097  0.10534174  0.10986721    -0.06680
N19         N  0.19853065  0.10989062  0.20060504    -0.46870
N20         N  0.31857606  0.14013216  0.04658741    -0.47090
C21         C  0.10020613  0.14369739  0.11777604     0.42220
N22         N  0.21514119  0.05532380  0.08205450     0.01090
N23         N  0.23240899  0.21280362  0.13233784    -0.25780
N24         N  0.19857919  0.07025241  0.16488299    -0.26280
N25         N  0.26992106  0.21789894  0.12150368     0.00730
H26         H  0.17831247  0.25385501  0.13689716     0.06620
H27         H  0.33187746  0.23304261  0.07544938     0.06660
N28         N  0.25226336  0.06488894  0.07167233    -0.26330
N29         N  0.36127186  0.12415989  0.12949437    -0.25940
N30         N  0.16480309  0.14631579  0.13155249     0.01100
C31         C  0.27656526  0.95248146  0.12911893     0.42490
C32         C  0.28012914  0.17515886  0.20361630    -0.07190
N33         N  0.32247312  0.16804063  0.08588692    -0.25940
H34         H  0.41180013  0.15211006  0.15146790     0.06640
N35         N  0.24376773  0.97762734  0.13575250    -0.47160
H36         H  0.25578551  0.17271416  0.21856167     0.06630
C37         C  0.23709550  0.27618542  0.11394388     0.42330
C38         C  0.17962110  0.04697152  0.18390434    -0.06690
Co39       Co  0.21937990  0.15989206  0.15436060     0.73820
N40         N  0.34236231  0.18203750  0.18225184    -0.46880
C41         C  0.21342984  0.03322584  0.04177546     0.42600
N42         N  0.12823668  0.16738414  0.13156818    -0.46870
Co43       Co  0.31664531  0.17179990  0.12567904     0.73890
C44         C  0.32889184  0.20032256  0.06960748    -0.07200
C45         C  0.30697290  0.98023118  0.11521338    -0.06760
N46         N  0.16155166  0.10948658  0.11939573    -0.26290
N47         N  0.39019170  0.06235796  0.12097773    -0.47050
H48         H  0.28167677  0.05315778  0.03444572     0.06600
C49         C  0.20936045  0.24780313  0.12861299    -0.07170
Cl50       Cl  0.26158521  0.11711047  0.12428022    -0.50170
C51         C  0.32607835  0.18233852  0.20672706     0.42360
H52         H  0.10974100  0.07667847  0.10141511     0.06570
N53         N  0.27430174  0.25566842  0.11068509    -0.46880
C54         C  0.18697499  0.54842582  0.21085413     0.42210
N55         N  0.23480262  0.56857641  0.18343646     0.01100
C56         C  0.22929559  0.74544450  0.10393086    -0.06780
H57         H  0.10531653  0.63114187  0.09033918     0.06590
C58         C  0.21637700  0.53088088  0.05814133    -0.07130
Co59       Co  0.21497935  0.65460749  0.16251076     0.74180
N60         N  0.15556858  0.64181085  0.11779660    -0.26310
Co61       Co  0.20785591  0.65008824  0.09446405     0.74070
C62         C  0.17814801  0.54462182  0.04486650     0.42310
N63         N  0.27617645  0.51836099  0.11433275     0.00710
N64         N  0.19667931  0.59184651  0.07377600     0.00820
N65         N  0.23631072  0.74741406  0.14818023    -0.47150
H66         H  0.14795671  0.60904695  0.20482967     0.06580
N67         N  0.15711484  0.64522197  0.14360417     0.01110
N68         N  0.26066921  0.65895073  0.07224777     0.00850
C69         C  0.27817901  0.67001483  0.03223266     0.42450
N70         N  0.27698116  0.51987321  0.14016973    -0.25760
C71         C  0.28644005  0.68707291  0.20059411    -0.06680
N72         N  0.22479488  0.53747293  0.20002953    -0.46870
N73         N  0.25682604  0.68556175  0.05263476    -0.47090
C74         C  0.32815292  0.67075101  0.20868880     0.42220
N75         N  0.22508833  0.70911712  0.13991761     0.01090
N76         N  0.34308942  0.58311043  0.13618508    -0.25780
N77         N  0.20636207  0.59930277  0.18360249    -0.26280
N78         N  0.34160612  0.58408601  0.11020236     0.00730
H79         H  0.39422573  0.58730644  0.16399753     0.06620
H80         H  0.31540389  0.60703592  0.03071837     0.06660
N81         N  0.22099548  0.70709779  0.11410979    -0.26330
N82         N  0.22603824  0.56216514  0.07460656    -0.25940
N83         N  0.30246348  0.63156422  0.17815208     0.01100
C84         C  0.09187739  0.63391978  0.13491649     0.42490
C85         C  0.26826246  0.48162109  0.14988411    -0.07190
N86         N  0.28668242  0.62718567  0.06732850    -0.25940
H87         H  0.23755942  0.50530562  0.05272500     0.06640
N88         N  0.11933630  0.64094696  0.15475228    -0.47160
H89         H  0.26705463  0.47505460  0.17062781     0.06630
C90         C  0.40724365  0.59179495  0.11963000     0.42330
C91         C  0.17494996  0.58926602  0.20008014    -0.06690
Co92       Co  0.28970977  0.57514145  0.15978657     0.73820
N93         N  0.26658572  0.48024682  0.10551475    -0.46880
C94         C  0.23958942  0.77207849  0.12646539     0.42600
N95         N  0.33535095  0.63663190  0.19355912    -0.46870
Co96       Co  0.28372960  0.57265701  0.09145564     0.73890
C97         C  0.29974855  0.63150739  0.04206166    -0.07200
C98         C  0.11589388  0.63456074  0.11043697    -0.06760
N99         N  0.27332074  0.66097988  0.18137507    -0.26290
N100        N  0.16800076  0.58318612  0.05534781    -0.47050
H101        H  0.22951447  0.75334251  0.08323319     0.06600
C102        C  0.38321657  0.58750315  0.14387817    -0.07170
Cl103      Cl  0.24911737  0.61312479  0.12705848    -0.50170
C104        C  0.26100692  0.45497627  0.12673396     0.42360
H105        H  0.26749287  0.71174852  0.20959674     0.06570
N106        N  0.37968415  0.58877855  0.09936892    -0.46880
C107        C  0.91714492  0.14341577  0.12536563     0.42210
N108        N  0.85158052  0.14775339  0.11474523     0.01100
C109        C  0.68125000  0.12332082  0.20064746    -0.06780
H110        H  0.77132095  0.00528994  0.20379631     0.06590
C111        C  0.73590894  0.98277532  0.09979564    -0.07130
Co112      Co  0.79570606  0.15007285  0.16338453     0.74180
N113        N  0.77857181  0.06188673  0.18045402    -0.26310
Co114      Co  0.72122490  0.07064511  0.15933926     0.74070
C115        C  0.74040249  0.95477894  0.12263234     0.42310
N116        N  0.77352396  0.07419877  0.07121510     0.00710
N117        N  0.73218942  0.01857566  0.13589810     0.00820
N118        N  0.73434026  0.16806758  0.21045719    -0.47150
H119        H  0.90117004  0.14115426  0.16953082     0.06580
N120        N  0.80738019  0.09206295  0.18065230     0.01110
N121        N  0.66437940  0.08046719  0.13927544     0.00850
C122        C  0.59861394  0.08292907  0.12873597     0.42450
N123        N  0.80166383  0.10474477  0.06890796    -0.25760
C124        C  0.77482251  0.24653945  0.15551327    -0.06680
N125        N  0.89051061  0.14743150  0.10474751    -0.46870
N126        N  0.62558175  0.07837960  0.14918337    -0.47090
C127        C  0.77026082  0.27513290  0.13296209     0.42220
N128        N  0.73956587  0.15158743  0.18651719     0.01090
N129        N  0.73878159  0.16988898  0.07604329    -0.25780
N130        N  0.85131544  0.14550941  0.14075706    -0.26280
N131        N  0.70907071  0.14099375  0.07342958     0.00730
H132        H  0.74913338  0.23139611  0.05952273     0.06620
H133        H  0.61602026  0.09255523  0.08481271     0.06660
N134        N  0.71023559  0.12304809  0.18175177    -0.26330
N135        N  0.73034954  0.02173120  0.11004663    -0.25940
N136        N  0.78423053  0.21188634  0.11911385     0.01100
C137        C  0.82998034  0.04818691  0.20996859     0.42490
C138        C  0.82369311  0.09643061  0.04640757    -0.07190
N139        N  0.66430976  0.08604785  0.11363517    -0.25940
H140        H  0.73550800  0.97485881  0.07909955     0.06640
N141        N  0.83793460  0.08522019  0.19779835    -0.47160
H142        H  0.84597495  0.11771609  0.03714032     0.06630
C143        C  0.68917801  0.19431279  0.04969681     0.42330
C144        C  0.89135528  0.14229746  0.14918490    -0.06690
Co145      Co  0.79508965  0.15880393  0.09446958     0.73820
N146        N  0.77599840  0.04508019  0.05285340    -0.46880
C147        C  0.69765077  0.15176864  0.22033010     0.42600
N148        N  0.77603862  0.25114937  0.11115808    -0.46870
Co149      Co  0.71886608  0.08081257  0.09189447     0.73890
C150        C  0.62452995  0.08894555  0.10517010    -0.07200
C151        C  0.79012932  0.03244156  0.19837280    -0.06760
N152        N  0.78328631  0.20828055  0.14504491    -0.26290
N153        N  0.73783513  0.97932320  0.14423051    -0.47050
H154        H  0.65804924  0.09855896  0.20343817     0.06600
C155        C  0.72885520  0.20421292  0.06229193    -0.07170
Cl156      Cl  0.75786885  0.11504619  0.12727521    -0.50170
C157        C  0.80681597  0.05561083  0.03613828     0.42360
H158        H  0.77183587  0.25318091  0.17629805     0.06570
N159        N  0.67908589  0.15381653  0.05670397    -0.46880
C160        C  0.90950534  0.63412238  0.13709954     0.42210
N161        N  0.84615531  0.64028342  0.12332509     0.01100
C162        C  0.65899371  0.64211521  0.19408021    -0.06780
H163        H  0.74981109  0.51142205  0.20941687     0.06590
C164        C  0.72616584  0.48194744  0.10408503    -0.07130
Co165      Co  0.78265267  0.65270285  0.16592657     0.74180
N166        N  0.75855862  0.56655214  0.18460913    -0.26310
Co167      Co  0.70512545  0.57548308  0.16026114     0.74070
C168        C  0.72798049  0.45517517  0.12757312     0.42310
N169        N  0.77522216  0.56726888  0.07737142     0.00710
N170        N  0.71749426  0.52011033  0.13900707     0.00820
N171        N  0.70990922  0.69154962  0.19953317    -0.47150
H172        H  0.88806746  0.64037917  0.18044052     0.06580
N173        N  0.78837613  0.59563171  0.18442195     0.01110
N174        N  0.65322819  0.58734921  0.13532780     0.00850
C175        C  0.58998721  0.59627081  0.12096979     0.42450
N176        N  0.80588753  0.59536931  0.07827514    -0.25760
C177        C  0.76928050  0.74875737  0.15312963    -0.06680
N178        N  0.88555665  0.63537997  0.11537085    -0.46870
N179        N  0.61317423  0.59037195  0.14292602    -0.47090
C180        C  0.77213843  0.77420817  0.12911442     0.42220
N181        N  0.72252321  0.66097561  0.18325159     0.01090
N182        N  0.74612647  0.66445938  0.07654397    -0.25780
N183        N  0.84221117  0.64272137  0.14901157    -0.26280
N184        N  0.71723675  0.63680023  0.06957744     0.00730
H185        H  0.77339928  0.71898828  0.05938194     0.06620
H186        H  0.61269903  0.59763167  0.07786040     0.06660
N187        N  0.69349305  0.63138218  0.18035862    -0.26330
N188        N  0.71955307  0.52149087  0.11306188    -0.25940
N189        N  0.78453753  0.70898983  0.11972787     0.01100
C190        C  0.81040592  0.55197562  0.21359686     0.42490
C191        C  0.83698174  0.58176504  0.06197992    -0.07190
N192        N  0.65767068  0.59048601  0.10947636    -0.25940
H193        H  0.73068557  0.47334234  0.08368372     0.06640
N194        N  0.81948671  0.58774696  0.20071123    -0.47160
H195        H  0.86517472  0.59931137  0.05682710     0.06630
C196        C  0.71952694  0.68502181  0.03925272     0.42330
C197        C  0.88087063  0.63870824  0.15968747    -0.06690
Co198      Co  0.79609871  0.65223512  0.09945321     0.73820
N199        N  0.78357122  0.53484845  0.06208750    -0.46880
C200        C  0.66965336  0.68194964  0.20669432     0.42600
N201        N  0.78143620  0.74730918  0.10926085    -0.46870
Co202      Co  0.71632341  0.57895746  0.09189728     0.73890
C203        C  0.61936841  0.59645444  0.09869969    -0.07200
C204        C  0.76913226  0.53782185  0.20320150    -0.06760
N205        N  0.77757830  0.70900512  0.14528410    -0.26290
N206        N  0.72268644  0.48122285  0.14849562    -0.47050
H207        H  0.63097280  0.62284591  0.19641343     0.06600
C208        C  0.74798836  0.69608862  0.05990327    -0.07170
Cl209      Cl  0.74945458  0.61492969  0.12939640    -0.50170
C210        C  0.82195481  0.54092878  0.05151941     0.42360
H211        H  0.76285768  0.75862901  0.17313258     0.06570
N212        N  0.70190968  0.64672770  0.04576380    -0.46880
C213        C  0.18817560  0.45112870  0.94965609     0.42210
N214        N  0.23576715  0.42482239  0.92364567     0.01100
C215        C  0.22073342  0.38244220  0.78937125    -0.06780
H216        H  0.13598407  0.28813711  0.84225249     0.06590
C217        C  0.27536825  0.23417113  0.88516967    -0.07130
Co218      Co  0.20890311  0.42618882  0.86675159     0.74180
N219        N  0.17497057  0.34151912  0.85323211    -0.26310
Co220      Co  0.23631897  0.33154902  0.83694199     0.74070
C221        C  0.23638507  0.21563763  0.87530643     0.42310
N222        N  0.31188162  0.32109672  0.91765858     0.00710
N223        N  0.24367351  0.27746176  0.85904056     0.00820
N224        N  0.18667094  0.43785913  0.80716102    -0.47150
H225        H  0.14205313  0.46078668  0.91513247     0.06580
N226        N  0.16577226  0.37736087  0.86547610     0.01110
N227        N  0.29783939  0.32429816  0.82151531     0.00850
C228        C  0.35306569  0.32977468  0.79629439     0.42450
N229        N  0.30211503  0.35627611  0.93042477    -0.25760
C230        C  0.25626473  0.51217791  0.85872166    -0.06680
N231        N  0.22831558  0.43653849  0.94819408    -0.46870
N232        N  0.31006309  0.33066471  0.79685516    -0.47090
C233        C  0.29347182  0.53280571  0.86994520     0.42220
N234        N  0.21204067  0.41976345  0.82485994     0.01090
N235        N  0.35657595  0.40364805  0.89351343    -0.25780
N236        N  0.20316536  0.43173275  0.90804649    -0.26280
N237        N  0.36625583  0.36780085  0.88165221     0.00730
H238        H  0.39413447  0.45774567  0.90483741     0.06620
H239        H  0.39722913  0.32242069  0.83206774     0.06660
N240        N  0.22886980  0.38508786  0.81495829    -0.26330
N241        N  0.27695647  0.27261505  0.87420302    -0.25940
N242        N  0.28848295  0.46915399  0.88520535     0.01100
C243        C  0.10680807  0.34412260  0.86532983     0.42490
C244        C  0.29774005  0.34604816  0.95616342    -0.07190
N245        N  0.33029709  0.32023783  0.83743309    -0.25940
H246        H  0.29899091  0.22049459  0.89798377     0.06640
N247        N  0.12564511  0.38033893  0.87264366    -0.47160
H248        H  0.28986028  0.36780397  0.97187768     0.06630
C249        C  0.42459159  0.40204856  0.88236185     0.42330
C250        C  0.17149862  0.44835048  0.92275038    -0.06690
Co251      Co  0.29605014  0.41393484  0.90868601     0.73820
N252        N  0.31399014  0.28726000  0.93284210    -0.46880
C253        C  0.19074325  0.41604600  0.78401178     0.42600
N254        N  0.31124954  0.50443205  0.88661018    -0.46870
Co255      Co  0.32197081  0.31987624  0.87772576     0.73890
C256        C  0.36626357  0.32241760  0.82346429    -0.07200
C257        C  0.13929685  0.31822428  0.85216776    -0.06760
N258        N  0.25579849  0.47309949  0.86904681    -0.26290
N259        N  0.21899842  0.24370735  0.85856761    -0.47050
H260        H  0.22418443  0.35340140  0.77824935     0.06600
C261        C  0.39169487  0.42739222  0.89513403    -0.07170
Cl262      Cl  0.26575952  0.37311038  0.87254044    -0.50170
C263        C  0.30488636  0.29983285  0.95737688     0.42360
H264        H  0.23189723  0.52558166  0.84633571     0.06570
N265        N  0.40676304  0.36523609  0.87513438    -0.46880
C266        C  0.28116726  0.93797978  0.95882809     0.42210
N267        N  0.30410636  0.89371041  0.92951350     0.01100
C268        C  0.28652547  0.93985875  0.79818344    -0.06780
H269        H  0.17269971  0.00897252  0.85467349     0.06590
C270        C  0.12963538  0.84805499  0.88437409    -0.07130
Co271      Co  0.31242253  0.93848338  0.87816799     0.74180
N272        N  0.22579141  0.97038111  0.86635958    -0.26310
Co273      Co  0.22249443  0.91663173  0.84351117     0.74070
C274        C  0.10392507  0.88472838  0.87745871     0.42310
N275        N  0.22172319  0.80215509  0.91117252     0.00710
N276        N  0.16782357  0.89432302  0.86360943     0.00820
N277        N  0.34563855  0.95214663  0.82168901    -0.47150
H278        H  0.29457086  0.99449854  0.93198417     0.06580
N279        N  0.26056740  0.97882654  0.87945150     0.01110
N280        N  0.22143741  0.86437903  0.82046949     0.00850
C281        C  0.20041620  0.83115745  0.78634025     0.42450
N282        N  0.25357661  0.81816099  0.92435078    -0.25760
C283        C  0.40184189  0.90249163  0.86669622    -0.06680
N284        N  0.28704222  0.89632803  0.95347091    -0.46870
N285        N  0.21428346  0.86824585  0.79523615    -0.47090
C286        C  0.42313397  0.86231769  0.87134735     0.42220
N287        N  0.31287065  0.94386875  0.83723870     0.01090
N288        N  0.30460966  0.78338827  0.88145904    -0.25780
N289        N  0.30847075  0.93134932  0.91864113    -0.26280
N290        N  0.27084399  0.77596416  0.86688370     0.00730
H291        H  0.35609937  0.74251851  0.89345184     0.06620
H292        H  0.18823359  0.77064905  0.81091785     0.06660
N293        N  0.27794237  0.93613891  0.82400845    -0.26330
N294        N  0.16782987  0.85617471  0.87438548    -0.25940
N295        N  0.36063439  0.85912170  0.88707174     0.01100
C296        C  0.22460828  0.03644228  0.88116912     0.42490
C297        C  0.25590150  0.80098959  0.94809879    -0.07190
N298        N  0.21479836  0.82599422  0.82959042    -0.25940
H299        H  0.12081138  0.81874020  0.89377302     0.06640
N300        N  0.26130794  0.01804648  0.88829160    -0.47160
H301        H  0.28339880  0.80341009  0.96063227     0.06630
C302        C  0.30450162  0.71635412  0.86598883     0.42330
C303        C  0.29736952  0.96111014  0.93613764    -0.06690
Co304      Co  0.30666695  0.83873367  0.90588464     0.73820
N305        N  0.20521533  0.76935789  0.92404314    -0.46880
C306        C  0.33168503  0.95021068  0.79657564     0.42600
N307        N  0.39625164  0.83736977  0.88478962    -0.46870
Co308      Co  0.21821330  0.81467628  0.87035349     0.73890
C309        C  0.20053006  0.80246592  0.80933819    -0.07200
C310        C  0.20094000  0.00486886  0.86637336    -0.06760
N311        N  0.36309820  0.89723945  0.87678204    -0.26290
N312        N  0.12975783  0.91235167  0.86474524    -0.47050
H313        H  0.26447534  0.93380752  0.78243646     0.06600
C314        C  0.32859178  0.74781210  0.88126839    -0.07170
Cl315      Cl  0.26493279  0.87703731  0.87443091    -0.50170
C316        C  0.22582902  0.76679547  0.94746503     0.42360
H317        H  0.41381748  0.93110990  0.85773446     0.06570
N318        N  0.26949586  0.73682763  0.85775594    -0.46880
C319        C  0.82523057  0.44318687  0.95743397     0.42210
N320        N  0.81322957  0.39373943  0.92974652     0.01100
C321        C  0.78528879  0.42467568  0.79574248    -0.06780
H322        H  0.67682180  0.50685952  0.85456729     0.06590
C323        C  0.62690219  0.35471052  0.88863352    -0.07130
Co324      Co  0.81528872  0.42939217  0.87515809     0.74180
N325        N  0.73036321  0.46640969  0.86309843    -0.26310
Co326      Co  0.72204933  0.40869432  0.84281074     0.74070
C327        C  0.60560987  0.39427749  0.88169078     0.42310
N328        N  0.71588737  0.31053739  0.91790281     0.00710
N329        N  0.66808253  0.39389190  0.86487599     0.00820
N330        N  0.84505623  0.43790886  0.81845750    -0.47150
H331        H  0.83053166  0.49349649  0.92513919     0.06580
N332        N  0.76612376  0.47338695  0.87560792     0.01110
N333        N  0.71501767  0.35112583  0.82295085     0.00850
C334        C  0.70026942  0.30498620  0.79304883     0.42450
N335        N  0.75083479  0.32004201  0.93079200    -0.25760
C336        C  0.90208881  0.38824050  0.86448711    -0.06680
N337        N  0.81753075  0.40114847  0.95533358    -0.46870
N338        N  0.70779020  0.34653540  0.79748093    -0.47090
C339        C  0.92476489  0.35022915  0.87300962     0.42220
N340        N  0.81300908  0.42956618  0.83438778     0.01090
N341        N  0.80018506  0.27890225  0.88953321    -0.25780
N342        N  0.81722574  0.42857782  0.91558080    -0.26280
N343        N  0.76543242  0.27035742  0.87624636     0.00730
H344        H  0.85614744  0.24224931  0.89832773     0.06620
H345        H  0.69848443  0.25132270  0.82404296     0.06660
N346        N  0.77757907  0.42182352  0.82172807    -0.26330
N347        N  0.66530668  0.35739436  0.87751855    -0.25940
N348        N  0.86153971  0.34969072  0.88888499     0.01100
C349        C  0.73266303  0.53297268  0.87908850     0.42490
C350        C  0.74482900  0.31068283  0.95633511    -0.07190
N351        N  0.71237863  0.31499840  0.83584759    -0.25940
H352        H  0.61489569  0.32767136  0.89934814     0.06640
N353        N  0.76876673  0.51225410  0.88509121    -0.47160
H354        H  0.76893629  0.31170421  0.97136620     0.06630
C355        C  0.80379956  0.21417564  0.87235854     0.42330
C356        C  0.82503818  0.46121143  0.93132833    -0.06690
Co357      Co  0.80678697  0.33539282  0.91032542     0.73820
N358        N  0.68633590  0.29357114  0.93326979    -0.46880
C359        C  0.83043549  0.43581079  0.79357903     0.42600
N360        N  0.89759396  0.32794949  0.88829090    -0.46870
Co361      Co  0.71430161  0.31276429  0.87679913     0.73890
C362        C  0.70369522  0.28395655  0.81868760    -0.07200
C363        C  0.70692817  0.50223426  0.86421415    -0.06760
N364        N  0.86366816  0.38507603  0.87520660    -0.26290
N365        N  0.63273637  0.41650959  0.86642511    -0.47050
H366        H  0.76195855  0.41917527  0.78073217     0.06600
C367        C  0.82621889  0.24533309  0.88822923    -0.07170
Cl368      Cl  0.76447799  0.37160784  0.87637132    -0.50170
C369        C  0.70193508  0.29320446  0.95796396     0.42360
H370        H  0.91314812  0.41536766  0.85350797     0.06570
N371        N  0.76591187  0.23164313  0.86623050    -0.46880
C372        C  0.79661360  0.78513332  0.95940288     0.42210
N373        N  0.77570595  0.82896819  0.92972751     0.01100
C374        C  0.82101534  0.84705642  0.79664634    -0.06780
H375        H  0.89950101  0.94693776  0.85207966     0.06590
C376        C  0.75766221  0.01647234  0.88022560    -0.07130
Co377      Co  0.81269328  0.81558198  0.87622745     0.74180
N378        N  0.85581291  0.89733795  0.86240766    -0.26310
Co379      Co  0.80078638  0.90986828  0.84036530     0.74070
C380        C  0.79790596  0.03339050  0.87130590     0.42310
N381        N  0.71354864  0.93646880  0.91523291     0.00710
N382        N  0.79264874  0.96867935  0.85879319     0.00820
N383        N  0.83412300  0.78724678  0.81959508    -0.47150
H384        H  0.84371284  0.75479206  0.92978340     0.06580
N385        N  0.85992222  0.86220770  0.87653195     0.01110
N386        N  0.74234126  0.91847941  0.82048683     0.00850
C387        C  0.69023105  0.91469844  0.79323234     0.42450
N388        N  0.71979847  0.90156106  0.92890187    -0.25760
C389        C  0.76173209  0.73418140  0.86733456    -0.06680
N390        N  0.76957844  0.81618556  0.95388730    -0.46870
N391        N  0.73273275  0.90893867  0.79574064    -0.47090
C392        C  0.72278628  0.71627617  0.87790353     0.42220
N393        N  0.81715640  0.81703573  0.83489267     0.01090
N394        N  0.66663251  0.85396831  0.89050321    -0.25780
N395        N  0.80766655  0.81015734  0.91787671    -0.26280
N396        N  0.66125269  0.88934333  0.87737619     0.00730
H397        H  0.62559878  0.80131173  0.89927804     0.06620
H398        H  0.64199878  0.93323696  0.82490598     0.06660
N399        N  0.81053428  0.85258044  0.82189853    -0.26330
N400        N  0.75728635  0.97667108  0.87162076    -0.25940
N401        N  0.72795690  0.78181874  0.89004259     0.01100
C402        C  0.92062164  0.89263105  0.87940234     0.42490
C403        C  0.73270329  0.91310709  0.95315543    -0.07190
N404        N  0.70822355  0.92849110  0.83427591    -0.25940
H405        H  0.73184483  0.03218697  0.89035235     0.06640
N406        N  0.89831740  0.85793010  0.88646096    -0.47160
H407        H  0.74379596  0.89191283  0.96816246     0.06630
C408        C  0.60259923  0.85659120  0.87359605     0.42330
C409        C  0.82231778  0.78029398  0.93495713    -0.06690
Co410      Co  0.72183885  0.84153707  0.91000303     0.73820
N411        N  0.72227015  0.97133093  0.92866871    -0.46880
C412        C  0.83654336  0.80387604  0.79505318     0.42600
N413        N  0.70390124  0.74739929  0.89237004    -0.46870
Co414      Co  0.70928423  0.93341946  0.87465976     0.73890
C415        C  0.67437085  0.92818619  0.81867674    -0.07200
C416        C  0.89251166  0.91860557  0.86319168    -0.06760
N417        N  0.76247883  0.77401836  0.87598848    -0.26290
N418        N  0.81793752  0.00223680  0.85770141    -0.47050
H419        H  0.82302838  0.87193721  0.78206913     0.06600
C420        C  0.63112662  0.83115347  0.88942844    -0.07170
Cl421      Cl  0.76128891  0.87491411  0.87522443    -0.50170
C422        C  0.73447904  0.95966050  0.95298147     0.42360
H423        H  0.78779087  0.71813915  0.85763886     0.06570
N424        N  0.62287172  0.89268849  0.86738054    -0.46880
C425        C  0.08150764  0.32336820  0.71493818     0.42210
N426        N  0.03433720  0.30613542  0.68605477     0.01100
C427        C  0.08521371  0.31413408  0.55330360    -0.06780
H428        H  0.16199379  0.41829067  0.60642250     0.06590
C429        C  0.01267658  0.48489763  0.63463859    -0.07130
Co430      Co  0.07609159  0.29109853  0.63372384     0.74180
N431        N  0.11760093  0.37170991  0.61941611    -0.26310
Co432      Co  0.06582577  0.38098894  0.59650473     0.74070
C433        C  0.05125824  0.50501757  0.62530269     0.42310
N434        N  0.96061285  0.40257412  0.66618584     0.00710
N435        N  0.05262217  0.43914339  0.61482150     0.00820
N436        N  0.09066510  0.25449421  0.57768401    -0.47150
H437        H  0.13554404  0.30638498  0.68710409     0.06580
N438        N  0.12111332  0.33739735  0.63378201     0.01110
N439        N  0.01391805  0.38883172  0.57363231     0.00850
C440        C  0.98281307  0.41698112  0.54052823     0.42450
N441        N  0.96632306  0.36775781  0.67998607    -0.25760
C442        C  0.03288951  0.20586642  0.62560359    -0.06680
N443        N  0.03940300  0.32251175  0.70997733    -0.46870
N444        N  0.01802975  0.39732740  0.54846209    -0.47090
C445        C  0.99455385  0.18543123  0.63496414     0.42220
N446        N  0.08150933  0.28786516  0.59257303     0.01090
N447        N  0.92528268  0.32090914  0.63972360    -0.25780
N448        N  0.07090677  0.29795813  0.67450192    -0.26280
N449        N  0.92344080  0.35428959  0.62393998     0.00730
H450        H  0.87606247  0.28311408  0.65747047     0.06620
H451        H  0.92579221  0.43644242  0.56667835     0.06660
N452        N  0.07817760  0.32297944  0.57870606    -0.26330
N453        N  0.01584071  0.44501205  0.62661059    -0.25940
N454        N  0.99288762  0.25130110  0.64576322     0.01100
C455        C  0.18207782  0.36566352  0.63533784     0.42490
C456        C  0.95660865  0.37495716  0.70506904    -0.07190
N457        N  0.97726056  0.40065432  0.58366533    -0.25940
H458        H  0.98434509  0.49931510  0.64272643     0.06640
N459        N  0.15916506  0.33252277  0.64353927    -0.47160
H460        H  0.95529439  0.35121469  0.72039212     0.06630
C461        C  0.85893780  0.33516014  0.62759703     0.42330
C462        C  0.10212320  0.30642300  0.69153486    -0.06690
Co463      Co  0.97921093  0.31033874  0.66314730     0.73820
N464        N  0.94510648  0.43389695  0.68089829    -0.46880
C465        C  0.09351324  0.26865762  0.55254243     0.42600
N466        N  0.97092191  0.21550965  0.64729962    -0.46870
Co467      Co  0.96874205  0.40086766  0.62501355     0.73890
C468        C  0.95507740  0.41905490  0.56408612    -0.07200
C469        C  0.15450556  0.39201084  0.61919607    -0.06760
N470        N  0.02967983  0.24569346  0.63394917    -0.26290
N471        N  0.07452656  0.47479256  0.61296067    -0.47050
H472        H  0.08467089  0.33688752  0.53740789     0.06600
C473        C  0.88564481  0.30620718  0.64292109    -0.07170
Cl474      Cl  0.02213381  0.34559088  0.62940437    -0.50170
C475        C  0.94325509  0.41876817  0.70588246     0.42360
H476        H  0.06018453  0.19244772  0.61575894     0.06570
N477        N  0.88476189  0.36329186  0.61625801    -0.46880
C478        C  0.08793757  0.88505792  0.70722256     0.42210
N479        N  0.06014831  0.85315999  0.67460120     0.01100
C480        C  0.02326043  0.91178737  0.54575132    -0.06780
H481        H  0.92827013  0.97897183  0.60675508     0.06590
C482        C  0.87076828  0.83385389  0.63418094    -0.07130
Co483      Co  0.06526126  0.89883608  0.62305888     0.74180
N484        N  0.98092226  0.93800563  0.61399314    -0.26310
Co485      Co  0.96969579  0.88380421  0.59106790     0.74070
C486        C  0.85392438  0.87619397  0.62899676     0.42310
N487        N  0.95962622  0.78318993  0.66172209     0.00710
N488        N  0.91601820  0.87132309  0.61266860     0.00820
N489        N  0.08209634  0.93357283  0.56658880    -0.47150
H490        H  0.10540666  0.94236368  0.68088378     0.06580
N491        N  0.01662049  0.94270348  0.62701197     0.01110
N492        N  0.95929908  0.82846536  0.56883931     0.00850
C493        C  0.94689431  0.78254594  0.53880854     0.42450
N494        N  0.99578428  0.78781551  0.67413809    -0.25760
C495        C  0.15201606  0.85806962  0.61092467    -0.06680
N496        N  0.06902093  0.84955104  0.69962574    -0.46870
N497        N  0.95522365  0.82415063  0.54294184    -0.47090
C498        C  0.17574635  0.82174477  0.62104299     0.42220
N499        N  0.05938065  0.90782906  0.58183846     0.01090
N500        N  0.04153173  0.74798318  0.62993656    -0.25780
N501        N  0.07060834  0.88992640  0.66429731    -0.26280
N502        N  0.00485494  0.74237802  0.61828310     0.00730
H503        H  0.09621765  0.70848115  0.63531110     0.06620
H504        H  0.93984795  0.72886257  0.56890232     0.06660
N505        N  0.02364896  0.89722697  0.57027139    -0.26330
N506        N  0.90991292  0.83420692  0.62384690    -0.25940
N507        N  0.10923554  0.81597270  0.63178837     0.01100
C508        C  0.98414869  0.00241594  0.63250378     0.42490
C509        C  0.98766315  0.78555172  0.70022636    -0.07190
N510        N  0.95406948  0.79226801  0.58130289    -0.25940
H511        H  0.85548307  0.80687795  0.64310662     0.06640
N512        N  0.01988037  0.98040900  0.63796747    -0.47160
H513        H  0.01085377  0.78949285  0.71559919     0.06630
C514        C  0.03920118  0.68452735  0.61122423     0.42330
C515        C  0.08937487  0.91246569  0.68356726    -0.06690
Co516      Co  0.05211053  0.80064586  0.65270550     0.73820
N517        N  0.92694838  0.77805212  0.67773256    -0.46880
C518        C  0.06145785  0.93663804  0.54319795     0.42600
N519        N  0.14687464  0.79681485  0.63359644    -0.46870
Co520      Co  0.95655707  0.78735627  0.62134095     0.73890
C521        C  0.94598143  0.76164963  0.56411886    -0.07200
C522        C  0.95804001  0.97375558  0.61648190    -0.06760
N523        N  0.11219189  0.85270888  0.61939491    -0.26290
N524        N  0.88317755  0.89709080  0.61489147    -0.47050
H525        H  0.99523694  0.91343477  0.53360995     0.06600
C526        C  0.06554289  0.71349788  0.62646630    -0.07170
Cl527      Cl  0.01114547  0.84263003  0.62189763    -0.50170
C528        C  0.94150434  0.77913576  0.70259770     0.42360
H529        H  0.16401690  0.88683145  0.60212473     0.06570
N530        N  0.00210083  0.70481790  0.60706816    -0.46880
C531        C  0.44718653  0.40025353  0.70701644     0.42210
N532        N  0.49913401  0.40377594  0.67901197     0.01100
C533        C  0.46676937  0.39286944  0.54438245    -0.06780
H534        H  0.37994736  0.28799758  0.59601275     0.06590
C535        C  0.53019576  0.22203722  0.62856280    -0.07130
Co536      Co  0.46526990  0.41488030  0.62465253     0.74180
N537        N  0.42454057  0.33454215  0.60903050    -0.26310
Co538      Co  0.47973319  0.32521053  0.58840639     0.74070
C539        C  0.49720659  0.20043848  0.61423476     0.42310
N540        N  0.57625448  0.30547107  0.66338226     0.00710
N541        N  0.49138954  0.26697523  0.60714329     0.00820
N542        N  0.45846875  0.45161681  0.56928799    -0.47150
H543        H  0.39972834  0.41598013  0.67403657     0.06580
N544        N  0.42078347  0.36863119  0.62360101     0.01110
N545        N  0.53488647  0.31813928  0.56835981     0.00850
C546        C  0.56976438  0.28868206  0.53696855     0.42450
N547        N  0.56795128  0.34008919  0.67692499    -0.25760
C548        C  0.50682583  0.49874849  0.61793062    -0.06680
N549        N  0.48990814  0.39592409  0.70408906    -0.46870
N550        N  0.53447333  0.31007136  0.54305901    -0.47090
C551        C  0.54144101  0.52082239  0.63018045     0.42220
N552        N  0.46504488  0.41765973  0.58395339     0.01090
N553        N  0.61412823  0.38595379  0.63798209    -0.25780
N554        N  0.46497600  0.41165818  0.66520215    -0.26280
N555        N  0.61705711  0.35295647  0.62200957     0.00730
H556        H  0.66237352  0.42369383  0.65664477     0.06620
H557        H  0.62111265  0.26599253  0.56613072     0.06660
N558        N  0.46990353  0.38301402  0.56995714    -0.26330
N559        N  0.52551409  0.26227258  0.62175078    -0.25940
N560        N  0.54562607  0.45507903  0.64015904     0.01100
C561        C  0.35942709  0.34132322  0.62481122     0.42490
C562        C  0.57900984  0.33440690  0.70193462    -0.07190
N563        N  0.56933620  0.30489609  0.58028004    -0.25940
H564        H  0.55812791  0.20891218  0.63776664     0.06640
N565        N  0.38283736  0.37355870  0.63344167    -0.47160
H566        H  0.58079710  0.35929690  0.71650217     0.06630
C567        C  0.68135835  0.37182766  0.62678943     0.42330
C568        C  0.43121232  0.41151625  0.68102663    -0.06690
Co569      Co  0.55717768  0.39713444  0.65897091     0.73820
N570        N  0.59573282  0.27655190  0.67805408    -0.46880
C571        C  0.45969579  0.43875752  0.54396603     0.42600
N572        N  0.56452489  0.49204195  0.64387865    -0.46870
Co573      Co  0.57237472  0.30622271  0.62192017     0.73890
C574        C  0.59324408  0.28479880  0.56200047    -0.07200
C575        C  0.38707058  0.31481117  0.60835446    -0.06760
N576        N  0.51103385  0.45926119  0.62607403    -0.26290
N577        N  0.47380060  0.23001878  0.60156170    -0.47050
H578        H  0.46817241  0.37019678  0.52853534     0.06600
C579        C  0.65367377  0.40050035  0.64199970    -0.07170
Cl580      Cl  0.51883077  0.36086821  0.62349089    -0.50170
C581        C  0.59775247  0.29241249  0.70283402     0.42360
H582        H  0.47929787  0.51136213  0.60800540     0.06570
N583        N  0.65602416  0.34432418  0.61472682    -0.46880
C584        C  0.58810710  0.83654403  0.71211745     0.42210
N585        N  0.54050044  0.82416736  0.68267084     0.01100
C586        C  0.58978581  0.83998265  0.55088719    -0.06780
H587        H  0.64990977  0.95822294  0.60551921     0.06590
C588        C  0.48266503  0.99666431  0.62654664    -0.07130
Co589      Co  0.58421056  0.81717262  0.63074581     0.74180
N590        N  0.61256021  0.90450112  0.61748380    -0.26310
Co591      Co  0.55969024  0.90310398  0.59369560     0.74070
C592        C  0.51407616  0.02329236  0.61404225     0.42310
N593        N  0.44904750  0.90707078  0.66208049     0.00710
N594        N  0.53367542  0.95850758  0.61022594     0.00820
N595        N  0.60015741  0.78127869  0.57528836    -0.47150
H596        H  0.64189317  0.82513386  0.68269238     0.06580
N597        N  0.62147623  0.87101500  0.63180667     0.01110
N598        N  0.50796600  0.89818601  0.57032218     0.00850
C599        C  0.47809708  0.92227912  0.53545576     0.42450
N600        N  0.46109374  0.87433512  0.67635439    -0.25760
C601        C  0.55775117  0.72683745  0.62353128    -0.06680
N602        N  0.54551436  0.83526785  0.70779108    -0.46870
N603        N  0.51321430  0.90497824  0.54509966    -0.47090
C604        C  0.52388933  0.70019628  0.63311632     0.41900
N605        N  0.59107792  0.81456140  0.59019978     0.01090
N606        N  0.42871666  0.81920429  0.63594777    -0.25780
N607        N  0.57729294  0.82020476  0.67061505    -0.26280
N608        N  0.42040700  0.85147566  0.62009820     0.00730
H609        H  0.38882987  0.76927290  0.65113780     0.06620
H610        H  0.41798605  0.93929983  0.55969321     0.06660
N611        N  0.58365349  0.84879270  0.57633739    -0.26330
N612        N  0.49624378  0.95756423  0.62187287    -0.25940
N613        N  0.50886896  0.76470531  0.64222153     0.01100
C614        C  0.67732105  0.90931537  0.63452938     0.42490
C615        C  0.45066066  0.88081229  0.70148337    -0.07190
N616        N  0.46953903  0.90667201  0.57906463    -0.25940
H617        H  0.45143032  0.00456432  0.63382103     0.06640
N618        N  0.65958417  0.87265505  0.64217125    -0.47160
H619        H  0.45440064  0.85811575  0.71725255     0.06630
C620        C  0.36145600  0.81635982  0.62082314     0.42330
C621        C  0.60858382  0.82521432  0.68763572    -0.06690
Co622      Co  0.48441755  0.81969042  0.65974446     0.73820
N623        N  0.42897827  0.93609509  0.67655323    -0.46880
C624        C  0.60004070  0.79498480  0.55007161     0.42600
N625        N  0.49446565  0.72555573  0.64460874    -0.46870
Co626      Co  0.45813882  0.90578097  0.62069307     0.73890
C627        C  0.44841108  0.92360697  0.55837467    -0.07200
C628        C  0.64598401  0.93061867  0.61787437    -0.06760
N629        N  0.54623281  0.76556886  0.63059730    -0.26290
N630        N  0.54534255  0.99781882  0.60475255    -0.47050
H631        H  0.58413983  0.86144570  0.53469783     0.06600
C632        C  0.39338427  0.79513911  0.63748867    -0.07170
Cl633      Cl  0.52134956  0.86138256  0.62621689    -0.50170
C634        C  0.42948485  0.92161194  0.70173615     0.42360
H635        H  0.58823731  0.71842944  0.61526023     0.06570
N636        N  0.38102590  0.85114156  0.61127378    -0.46880
C637        C  0.92514592  0.03167933  0.30746145     0.42210
N638        N  0.97596263  0.03811875  0.33548199     0.01100
C639        C  0.98630549  0.09181323  0.46406958    -0.06780
H640        H  0.87954102  0.19384708  0.40467857     0.06590
C641        C  0.01583737  0.23456679  0.35778989    -0.07130
Co642      Co  0.94759571  0.04820641  0.39093901     0.74180
N643        N  0.91371894  0.13540341  0.39955315    -0.26310
Co644      Co  0.97387509  0.14796689  0.41375187     0.74070
C645        C  0.97985380  0.25848033  0.36844243     0.42310
N646        N  0.05752267  0.13484465  0.33182437     0.00710
N647        N  0.98187134  0.19691248  0.38641159     0.00820
N648        N  0.97085306  0.02769585  0.44765033    -0.47150
H649        H  0.87479441  0.03573442  0.34058073     0.06580
N650        N  0.90303849  0.09775659  0.39078848     0.01110
N651        N  0.03311628  0.16162484  0.42797283     0.00850
C652        C  0.08138739  0.18281303  0.45432039     0.42450
N653        N  0.04469394  0.09664399  0.32548711    -0.25760
C654        C  0.98606397  0.96001503  0.40078781    -0.06680
N655        N  0.96760244  0.03379247  0.31011744    -0.46870
N656        N  0.04029005  0.17299383  0.45247296    -0.47090
C657        C  0.02216367  0.93555697  0.39092610     0.42220
N658        N  0.95975908  0.05809057  0.43099262     0.01090
N659        N  0.09680542  0.06279911  0.36748705    -0.25780
N660        N  0.94136028  0.03938484  0.35016421    -0.26280
N661        N  0.10482671  0.10165235  0.37571253     0.00730
H662        H  0.13732530  0.00757246  0.36351888     0.06620
H663        H  0.13130307  0.18384788  0.42081254     0.06660
N664        N  0.96984729  0.09611683  0.43975479    -0.26330
N665        N  0.01499382  0.19732347  0.37035383    -0.25940
N666        N  0.02642383  0.99972280  0.37725337     0.01100
C667        C  0.84555082  0.13481844  0.38856460     0.42490
C668        C  0.04929638  0.09017643  0.29993969    -0.07190
N669        N  0.06692898  0.16399177  0.41278973    -0.25940
H670        H  0.04110605  0.24527619  0.34501626     0.06640
N671        N  0.86243191  0.09591188  0.38406403    -0.47160
H672        H  0.04670074  0.05958705  0.29053191     0.06630
C673        C  0.16393515  0.06952704  0.38117055     0.42330
C674        C  0.90753818  0.03513174  0.33427572    -0.06690
Co675      Co  0.03636275  0.04880249  0.35146009     0.73820
N676        N  0.07553245  0.15374695  0.31120221    -0.46880
C677        C  0.98792786  0.04632902  0.46903405     0.42600
N678        N  0.04535332  0.96231842  0.37606890    -0.46870
Co679      Co  0.06157235  0.15020518  0.37233574     0.73890
C680        C  0.09950050  0.17765506  0.42773808    -0.07200
C681        C  0.87984247  0.16105996  0.39866186    -0.06760
N682        N  0.99118769  0.99890522  0.39112094    -0.26290
N683        N  0.96061033  0.23308973  0.38616072    -0.47050
H684        H  0.00088041  0.11646812  0.47551298     0.06600
C685        C  0.13295161  0.04005217  0.36971367    -0.07170
Cl686      Cl  0.00480974  0.09892659  0.38201660    -0.50170
C687        C  0.07026659  0.12730125  0.29022480     0.42360
H688        H  0.95820790  0.94906197  0.41118007     0.06570
N689        N  0.14405554  0.10689306  0.38373532    -0.46880
C690        C  0.07986142  0.52920098  0.29806255     0.42210
N691        N  0.04865254  0.57412800  0.32343222     0.01100
C692        C  0.99287799  0.55742800  0.45493194    -0.06780
H693        H  0.90869714  0.46482821  0.39616335     0.06590
C694        C  0.84640297  0.60509538  0.35768033    -0.07130
Co695      Co  0.04528260  0.54767896  0.37996140     0.74180
N696        N  0.96091540  0.50743154  0.38919916    -0.26310
Co697      Co  0.94393629  0.56666468  0.40574290     0.74070
C698        C  0.82604431  0.56804756  0.36905550     0.42310
N699        N  0.93793645  0.64118969  0.32586423     0.00710
N700        N  0.89041208  0.57144802  0.38243597     0.00820
N701        N  0.05595258  0.53400215  0.44005817    -0.47150
H702        H  0.09063189  0.48311897  0.33272153     0.06580
N703        N  0.99924685  0.50129436  0.37918627     0.01110
N704        N  0.93021769  0.62689673  0.42127363     0.00850
C705        C  0.92226196  0.68076687  0.44647505     0.42450
N706        N  0.97449684  0.63039195  0.31508063    -0.25760
C707        C  0.12641858  0.60109142  0.39165163    -0.06680
N708        N  0.06237025  0.56802506  0.29915110    -0.46870
N709        N  0.92854464  0.63835097  0.44636836    -0.47090
C710        C  0.14544009  0.63985144  0.38107271     0.42220
N711        N  0.03381734  0.55191521  0.42080906     0.01090
N712        N  0.01423990  0.69173221  0.35294720    -0.25780
N713        N  0.05669485  0.54198371  0.33916635    -0.26280
N714        N  0.97652835  0.69800407  0.36331073     0.00730
H715        H  0.06798126  0.73324584  0.34728318     0.06620
H716        H  0.91770670  0.72654455  0.41162552     0.06660
N717        N  0.99583025  0.56288344  0.42916680    -0.26330
N718        N  0.88580052  0.60476569  0.36721947    -0.25940
N719        N  0.08419496  0.62990581  0.36322653     0.01100
C720        C  0.97001905  0.44041997  0.37612467     0.42490
C721        C  0.96571908  0.61132269  0.29190201    -0.07190
N722        N  0.92634476  0.65948544  0.40526608    -0.25940
H723        H  0.83238170  0.63051446  0.34638391     0.06640
N724        N  0.00594473  0.46198335  0.37151785    -0.47160
H725        H  0.98894699  0.59621737  0.27939150     0.06630
C726        C  0.00650742  0.75824558  0.36667466     0.42330
C727        C  0.07710218  0.51198864  0.32493784    -0.06690
Co728      Co  0.03082825  0.63246049  0.33799731     0.73820
N729        N  0.90493618  0.63069687  0.31164337    -0.46880
C730        C  0.03186198  0.53689711  0.46228476     0.42600
N731        N  0.11766102  0.65529876  0.36313323    -0.46870
Co732      Co  0.93154615  0.65164719  0.36520963     0.73890
C733        C  0.92099743  0.69483374  0.41935094    -0.07200
C734        C  0.93994058  0.47040041  0.38815054    -0.06760
N735        N  0.08884511  0.59765944  0.37963587    -0.26290
N736        N  0.85489782  0.54947575  0.38493955    -0.47050
H737        H  0.96334669  0.55812525  0.46582019     0.06600
C738        C  0.03603172  0.72825437  0.35435308    -0.07170
Cl739      Cl  0.98810114  0.59951624  0.37226139    -0.50170
C740        C  0.91890807  0.61099730  0.28999127     0.42360
H741        H  0.14001745  0.57720800  0.40428980     0.06570
N742        N  0.97072644  0.73697690  0.37169317    -0.46880
C743        C  0.60030468  0.09157013  0.30413529     0.42210
N744        N  0.55130935  0.11343991  0.33055270     0.01100
C745        C  0.51293683  0.07048117  0.46172640    -0.06780
H746        H  0.41897179  0.99632369  0.40233257     0.06590
C747        C  0.35977992  0.13764639  0.37353352    -0.07130
Co748      Co  0.55735324  0.07390811  0.38441859     0.74180
N749        N  0.47243130  0.03655447  0.39407341    -0.26310
Co750      Co  0.46120631  0.09192654  0.41589911     0.74070
C751        C  0.34316218  0.09575675  0.38042065     0.42310
N752        N  0.44760711  0.18429799  0.34270166     0.00710
N753        N  0.40596780  0.10245121  0.39563107     0.00820
N754        N  0.57077416  0.04231892  0.44268880    -0.47150
H755        H  0.62287217  0.04325857  0.33527355     0.06580
N756        N  0.50867549  0.02991763  0.38149177     0.01110
N757        N  0.45438523  0.14837732  0.43685567     0.00850
C758        C  0.47358183  0.19646654  0.46464229     0.42450
N759        N  0.48360026  0.17806413  0.32992141    -0.25760
C760        C  0.64163744  0.11803688  0.39584452    -0.06680
N761        N  0.56829351  0.11892809  0.30719328    -0.46870
N762        N  0.46976569  0.15441437  0.46078276    -0.47090
C763        C  0.66334250  0.15507375  0.38566249     0.42220
N764        N  0.55005111  0.06728040  0.42586685     0.01090
N765        N  0.52977120  0.22428718  0.37074420    -0.25780
N766        N  0.56689361  0.08049125  0.34320817    -0.26280
N767        N  0.49333441  0.23084926  0.38274720     0.00730
H768        H  0.58081427  0.26583862  0.35956630     0.06620
H769        H  0.46031634  0.24913107  0.43483920     0.06660
N770        N  0.51459713  0.08072701  0.43652816    -0.26330
N771        N  0.39912576  0.13856529  0.38354644    -0.25940
N772        N  0.59817523  0.15636145  0.37268404     0.01100
C773        C  0.47484440  0.97158052  0.37754180     0.42490
C774        C  0.47496582  0.17769944  0.30396117    -0.07190
N775        N  0.44870641  0.18428507  0.42421344    -0.25940
H776        H  0.34434993  0.16334509  0.36329080     0.06640
N777        N  0.51185179  0.99104700  0.37204236    -0.47160
H778        H  0.49781279  0.17237804  0.28838408     0.06630
C779        C  0.52419771  0.29127248  0.38355233     0.42330
C780        C  0.59898816  0.06501385  0.32819354    -0.06690
Co781      Co  0.54096861  0.16836354  0.35084220     0.73820
N782        N  0.41448900  0.18797883  0.32700971    -0.46880
C783        C  0.54924644  0.04403766  0.46610534     0.42600
N784        N  0.63484792  0.17696633  0.37090912    -0.46870
Co785      Co  0.44612131  0.18522066  0.38335503     0.73890
C786        C  0.45803382  0.21631418  0.44050454    -0.07200
C787        C  0.44891393  0.00145017  0.39244714    -0.06760
N788        N  0.60213638  0.12118276  0.38673250    -0.26290
N789        N  0.37320969  0.07645315  0.39482751    -0.47050
H790        H  0.48424755  0.07169676  0.47344903     0.06600
C791        C  0.55165184  0.26062199  0.37030424    -0.07170
Cl792      Cl  0.50155782  0.12981641  0.38352923    -0.50170
C793        C  0.42881363  0.18394451  0.30213205     0.42360
H794        H  0.65497762  0.09036926  0.40527065     0.06570
N795        N  0.48847784  0.27056118  0.39019170    -0.46880
C796        C  0.41080708  0.60216262  0.29701488     0.42210
N797        N  0.46206447  0.58986153  0.32361712     0.01100
C798        C  0.44371678  0.60327324  0.45826388    -0.06780
H799        H  0.35459403  0.71669018  0.40856097     0.06590
C800        C  0.50838083  0.76753996  0.36887878    -0.07130
Co801      Co  0.42892395  0.58107932  0.37848367     0.74180
N802        N  0.39438971  0.66501576  0.39503859    -0.26310
Co803      Co  0.45386909  0.67057297  0.41314554     0.74070
C804        C  0.47164553  0.79033161  0.37882339     0.42310
N805        N  0.54835616  0.68017532  0.33550075     0.00710
N806        N  0.46879772  0.72609615  0.39230132     0.00820
N807        N  0.42832559  0.54521663  0.43410249    -0.47150
H808        H  0.36128900  0.59413993  0.32960891     0.06580
N809        N  0.38581580  0.63059954  0.38146804     0.01110
N810        N  0.51247168  0.67456071  0.43125224     0.00850
C811        C  0.55853113  0.68991565  0.46087207     0.42450
N812        N  0.53674999  0.64598931  0.32263964    -0.25760
C813        C  0.46926477  0.49274517  0.38546281    -0.06680
N814        N  0.45351978  0.60083074  0.29900365    -0.46870
N815        N  0.51741880  0.68085655  0.45668642    -0.47090
C816        C  0.50671849  0.47106366  0.37550154     0.42220
N817        N  0.43235521  0.57921129  0.41915050     0.01090
N818        N  0.57950479  0.59389592  0.36130176    -0.25780
N819        N  0.42742415  0.58568444  0.33797477    -0.26280
N820        N  0.58956053  0.62785342  0.37502058     0.00730
H821        H  0.61431767  0.53760310  0.35068085     0.06620
H822        H  0.61064535  0.69827782  0.42922211     0.06660
N823        N  0.44168661  0.61355066  0.43266127    -0.26330
N824        N  0.50436601  0.72846962  0.37847681    -0.25940
N825        N  0.50675635  0.53476224  0.36139136     0.01100
C826        C  0.32649721  0.66422076  0.38228203     0.42490
C827        C  0.54401928  0.65159826  0.29700153    -0.07190
N828        N  0.54802980  0.67910545  0.41787034    -0.25940
H829        H  0.53544554  0.77936670  0.35805979     0.06640
N830        N  0.34585927  0.62868626  0.37392208    -0.47160
H831        H  0.54133740  0.62726846  0.28213563     0.06630
C832        C  0.64551965  0.58885778  0.37652047     0.42330
C833        C  0.39368613  0.59233449  0.32283052    -0.06690
Co834      Co  0.52139411  0.59041521  0.34178483     0.73820
N835        N  0.56554970  0.70898954  0.31967658    -0.46880
C836        C  0.43439271  0.55794594  0.45908716     0.42600
N837        N  0.52847943  0.49882216  0.36054322    -0.46870
Co838      Co  0.54823619  0.67946224  0.37677256     0.73890
C839        C  0.57901335  0.68892212  0.43486637    -0.07200
C840        C  0.35847233  0.68815816  0.39703167    -0.06760
N841        N  0.47185987  0.53178707  0.37553410    -0.26290
N842        N  0.44868656  0.76298837  0.39352822    -0.47050
H843        H  0.45256916  0.62441843  0.47401020     0.06600
C844        C  0.61275749  0.56733694  0.36118349    -0.07170
Cl845      Cl  0.48815023  0.63063824  0.37756422    -0.50170
C846        C  0.56252131  0.69360162  0.29484808     0.42360
H847        H  0.44352641  0.48065634  0.39735284     0.06570
N848        N  0.62874683  0.62636686  0.38408739    -0.46880
C849        C  0.50123459  0.90328433  0.39390727    -0.20550
C850        C  0.47105343  0.92537091  0.37914792    -0.07120
C851        C  0.43829907  0.90317878  0.36645863     0.13750
C852        C  0.43798346  0.85872495  0.36753134    -0.20610
C853        C  0.46944066  0.83659047  0.38126860    -0.07120
C854        C  0.50061686  0.85908753  0.39537905     0.13740
C855        C  0.53290613  0.83679488  0.41230957    -0.23960
H856        H  0.52548343  0.92078047  0.40428392     0.15020
H857        H  0.41401655  0.84118681  0.35696574     0.15050
C858        C  0.40472948  0.92630246  0.35111712    -0.23900
H859        H  0.55281889  0.85962993  0.42330534     0.05270
H860        H  0.55442365  0.81720809  0.40001964     0.08490
H861        H  0.51654043  0.81634141  0.42690310     0.08490
H862        H  0.41972847  0.94518009  0.33519423     0.08480
H863        H  0.38678646  0.94782249  0.36438992     0.08480
H864        H  0.38190025  0.90407330  0.34200654     0.05250
C865        C  0.55089008  0.40813911  0.38524862    -0.20550
C866        C  0.51329209  0.42511182  0.37499053    -0.07120
C867        C  0.48199935  0.39790013  0.36481591     0.13750
C868        C  0.48752356  0.35426297  0.36717115    -0.20610
C869        C  0.52372790  0.33714568  0.37898145    -0.07120
C870        C  0.55661050  0.36409001  0.38721317     0.13740
C871        C  0.59688753  0.34653373  0.39864811    -0.23960
H872        H  0.57520135  0.42934954  0.39236670     0.15020
H873        H  0.46304576  0.33325753  0.36001760     0.15050
C874        C  0.44315601  0.41440341  0.35091311    -0.23900
H875        H  0.61858000  0.37211559  0.40505019     0.05270
H876        H  0.61363894  0.32714488  0.38364294     0.08490
H877        H  0.58951410  0.32639694  0.41591831     0.08490
H878        H  0.45271612  0.43602193  0.33472458     0.08480
H879        H  0.42212950  0.43138236  0.36488201     0.08480
H880        H  0.42431648  0.38835222  0.34217405     0.05250
C881        C  0.76282700  0.59002686  0.39423994    -0.20550
C882        C  0.78004152  0.56607964  0.37359494    -0.07120
C883        C  0.75297472  0.54614816  0.35556836     0.13750
C884        C  0.70900411  0.55215647  0.35788070    -0.20610
C885        C  0.69156160  0.57862695  0.37746755    -0.07120
C886        C  0.71896592  0.59678337  0.39641241     0.13740
C887        C  0.70265668  0.62365416  0.41884202    -0.23960
H888        H  0.78407214  0.60529093  0.40797513     0.15020
H889        H  0.68853938  0.53778982  0.34341502     0.15050
C890        C  0.77069645  0.51966316  0.33344220    -0.23900
H891        H  0.72830929  0.63219845  0.43273776     0.05270
H892        H  0.67815142  0.60605903  0.43007606     0.08490
H893        H  0.68917640  0.65371450  0.41124577     0.08490
H894        H  0.78965654  0.49312905  0.34166533     0.08480
H895        H  0.79130732  0.53938763  0.32064985     0.08480
H896        H  0.74522625  0.50606804  0.32107243     0.05250
C897        C  0.25795200  0.65974027  0.40641236    -0.20550
C898        C  0.27963695  0.66768824  0.38279769    -0.07120
C899        C  0.25640122  0.67065989  0.35918644     0.13750
C900        C  0.21235466  0.66378443  0.35952769    -0.20610
C901        C  0.19094124  0.65253729  0.38280924    -0.07120
C902        C  0.21398189  0.65186358  0.40674120     0.13740
C903        C  0.19263473  0.64324507  0.43276016    -0.23960
H904        H  0.27591125  0.65722761  0.42447916     0.15020
H905        H  0.19496173  0.66505313  0.34121959     0.15050
C906        C  0.27832778  0.68030617  0.33348018    -0.23900
H907        H  0.21466444  0.64787985  0.44949191     0.05270
H908        H  0.18155167  0.61007712  0.43369031     0.08490
H909        H  0.16544380  0.66517781  0.43550466     0.08490
H910        H  0.30172466  0.65509954  0.32877735     0.08480
H911        H  0.29494908  0.71114501  0.33496452     0.08480
H912        H  0.25555674  0.68228143  0.31692688     0.05250
C913        C  0.77688638  0.13244518  0.36449642    -0.20550
C914        C  0.79947204  0.14539248  0.38683868    -0.07120
C915        C  0.77700499  0.16568640  0.40760595     0.13750
C916        C  0.73279087  0.17114417  0.40575975    -0.20610
C917        C  0.71025806  0.15754949  0.38366376    -0.07120
C918        C  0.73271064  0.13843396  0.36262976     0.13740
C919        C  0.70981613  0.12309103  0.33857696    -0.23960
H920        H  0.79381872  0.11688567  0.34858247     0.15020
H921        H  0.71535381  0.18468607  0.42216118     0.15050
C922        C  0.79860069  0.17931005  0.43257699    -0.23900
H923        H  0.73184661  0.10893945  0.32389067     0.05270
H924        H  0.69337053  0.15019494  0.32918034     0.08490
H925        H  0.68622078  0.09869822  0.34417182     0.08490
H926        H  0.82030809  0.20599644  0.42846664     0.08480
H927        H  0.81638728  0.15231643  0.44119204     0.08480
H928        H  0.77549235  0.19054250  0.44758388     0.05250
C929        C  0.23472223  0.05318473  0.36178424    -0.20550
C930        C  0.21052279  0.06672946  0.38345654    -0.07120
C931        C  0.23118871  0.08536536  0.40523317     0.13750
C932        C  0.27475303  0.09348300  0.40383114    -0.20610
C933        C  0.29823489  0.08317960  0.38133239    -0.07120
C934        C  0.27862952  0.06092189  0.36061434     0.13740
C935        C  0.30389457  0.04581736  0.33726068    -0.23960
H936        H  0.21897142  0.03873424  0.34516698     0.15020
H937        H  0.29042138  0.10900806  0.42011773     0.15050
C938        C  0.20737858  0.09689624  0.43003624    -0.23900
H939        H  0.28380146  0.02871361  0.32290120     0.05270
H940        H  0.32931205  0.02396611  0.34391962     0.08490
H941        H  0.31840057  0.07316421  0.32709247     0.08490
H942        H  0.19069307  0.06858350  0.43777002     0.08480
H943        H  0.18405342  0.12236537  0.42611296     0.08480
H944        H  0.22898972  0.10852059  0.44561739     0.05250
C945        C  0.05108333  0.82029336  0.37841308    -0.20550
C946        C  0.01114647  0.80389192  0.37193712    -0.07120
C947        C  0.97550282  0.83128905  0.37133482     0.13750
C948        C  0.98058093  0.87372795  0.37789528    -0.20610
C949        C  0.02001802  0.88999671  0.38507507    -0.07120
C950        C  0.05592982  0.86327551  0.38502322     0.13740
C951        C  0.09890631  0.87979875  0.39248761    -0.23960
H952        H  0.07830791  0.79932563  0.37883431     0.15020
H953        H  0.95332050  0.89457346  0.37695602     0.15050
C954        C  0.93193082  0.81693204  0.36305732    -0.23900
H955        H  0.12326675  0.85434836  0.39219058     0.05270
H956        H  0.09760603  0.89331506  0.41264489     0.08490
H957        H  0.10893915  0.90473839  0.37841680     0.08490
H958        H  0.91845000  0.79503500  0.37793975     0.08480
H959        H  0.93371438  0.80123210  0.34353875     0.08480
H960        H  0.90936977  0.84383746  0.36130125     0.05250
C961        C  0.93966242  0.32561070  0.36325127    -0.20550
C962        C  0.97730488  0.30500636  0.37052924    -0.07120
C963        C  0.01061767  0.32875670  0.38166299     0.13750
C964        C  0.00621159  0.37265915  0.38392066    -0.20610
C965        C  0.96929709  0.39364637  0.37577116    -0.07120
C966        C  0.93527039  0.36984813  0.36565737     0.13740
C967        C  0.89509320  0.39093462  0.35658717    -0.23960
H968        H  0.91382649  0.30704681  0.35540782     0.15020
H969        H  0.03206287  0.39088684  0.39208058     0.15050
C970        C  0.05043119  0.30818954  0.39201317    -0.23900
H971        H  0.87261437  0.36772928  0.34809409     0.05270
H972        H  0.90246344  0.41487551  0.34125051     0.08490
H973        H  0.87908321  0.40652583  0.37347196     0.08490
H974        H  0.06904511  0.29424522  0.37562033     0.08480
H975        H  0.04213646  0.28320567  0.40649785     0.08480
H976        H  0.07123225  0.33137139  0.40205431     0.05250
C977        C  0.51978640  0.97258276  0.47358466    -0.20550
C978        C  0.54030086  0.00826234  0.48406526    -0.07120
C979        C  0.53519417  0.01718854  0.51116093     0.13750
C980        C  0.50825434  0.99204196  0.52668047    -0.20610
C981        C  0.48789523  0.95618875  0.51634157    -0.07120
C982        C  0.49450580  0.94607016  0.48951277     0.13740
C983        C  0.47493985  0.90702860  0.47776263    -0.23960
H984        H  0.52185936  0.96662852  0.45260633     0.15020
H985        H  0.50581153  0.99835628  0.54761924     0.15050
C986        C  0.55861021  0.05340372  0.52375121    -0.23900
H987        H  0.48250842  0.90396289  0.45647726     0.05270
H988        H  0.43997613  0.90858735  0.48002632     0.08490
H989        H  0.48702032  0.87833465  0.48791726     0.08490
H990        H  0.55002381  0.08377452  0.51426503     0.08480
H991        H  0.59323678  0.04826770  0.52147289     0.08480
H992        H  0.55132200  0.05611163  0.54509145     0.05250
C993        C  0.62091764  0.74062426  0.51698233    -0.20550
C994        C  0.58959993  0.76717043  0.52775793    -0.07120
C995        C  0.54826884  0.76661667  0.51722558     0.13750
C996        C  0.53985777  0.74105421  0.49552465    -0.20610
C997        C  0.57125511  0.71541366  0.48399022    -0.07120
C998        C  0.61225371  0.71463343  0.49510184     0.13740
C999        C  0.64638274  0.68571506  0.48464338    -0.23960
H1000       H  0.65227762  0.74055594  0.52555675     0.15020
H1001       H  0.50826622  0.74167867  0.48729380     0.15050
C1002       C  0.51232741  0.79211940  0.52895581    -0.23900
H1003       H  0.67537733  0.68703365  0.49691131     0.05270
H1004       H  0.65545332  0.69518814  0.46441942     0.08490
H1005       H  0.63492047  0.65251843  0.48457824     0.08490
H1006       H  0.51779258  0.82629338  0.52568450     0.08480
H1007       H  0.50947972  0.78548791  0.55034215     0.08480
H1008       H  0.48147583  0.78440610  0.51972869     0.05250
C1009       C  0.42733823  0.50365980  0.52557438    -0.20550
C1010       C  0.45300786  0.46775933  0.52137527    -0.07120
C1011       C  0.47305555  0.46234499  0.49658357     0.13750
C1012       C  0.46627918  0.49256397  0.47678345    -0.20610
C1013       C  0.44071622  0.52828251  0.48112290    -0.07120
C1014       C  0.42088551  0.53393357  0.50577044     0.13740
C1015       C  0.39179773  0.57093158  0.51100106    -0.23960
H1016       H  0.41195933  0.50800379  0.54450383     0.15020
H1017       H  0.48145062  0.48852041  0.45775348     0.15050
C1018       C  0.50279352  0.42605578  0.49082703    -0.23900
H1019       H  0.37723723  0.56917478  0.53090450     0.05270
H1020       H  0.36586326  0.57133595  0.49631319     0.08490
H1021       H  0.40973901  0.60097239  0.50981725     0.08490
H1022       H  0.48480159  0.39611025  0.48954354     0.08480
H1023       H  0.52744270  0.42386856  0.50628846     0.08480
H1024       H  0.51928618  0.43013434  0.47164345     0.05250
C1025       C  0.54424067  0.21879403  0.52409498    -0.20550
C1026       C  0.56382633  0.25669599  0.51628558    -0.07120
C1027       C  0.55806862  0.27115525  0.49030076     0.13750
C1028       C  0.53014195  0.24975549  0.47355345    -0.20610
C1029       C  0.50633143  0.21486071  0.48240054    -0.07120
C1030       C  0.51480915  0.19825012  0.50775758     0.13740
C1031       C  0.49042250  0.16119657  0.51865076    -0.23960
H1032       H  0.54750434  0.20845642  0.54430877     0.15020
H1033       H  0.52571746  0.26174434  0.45380661     0.15050
C1034       C  0.57879955  0.31145160  0.48100789    -0.23900
H1035       H  0.49988604  0.15354685  0.53915081     0.05270
H1036       H  0.49628477  0.13269873  0.50649508     0.08490
H1037       H  0.45602993  0.16858185  0.51869225     0.08490
H1038       H  0.61373271  0.30823052  0.48240762     0.08480
H1039       H  0.56819807  0.33863242  0.49325295     0.08480
H1040       H  0.57056300  0.31876937  0.46031635     0.05250
C1041       C  0.56860080  0.63601985  0.63673721    -0.20550
C1042       C  0.52768347  0.65418759  0.63666466    -0.07120
C1043       C  0.49193317  0.62793131  0.63867014     0.13750
C1044       C  0.49799032  0.58419742  0.63887787    -0.20610
C1045       C  0.53864841  0.56614810  0.63610509    -0.07120
C1046       C  0.57447387  0.59218553  0.63611181     0.13740
C1047       C  0.61856474  0.57401743  0.63421403    -0.23960
H1048       H  0.59636060  0.65597348  0.63656091     0.15020
H1049       H  0.47041334  0.56399169  0.64017256     0.15050
C1050       C  0.44739963  0.64538734  0.63926728    -0.23900
H1051       H  0.64301235  0.59921409  0.63385388     0.05270
H1052       H  0.62186382  0.55512061  0.61589428     0.08490
H1053       H  0.62478577  0.55340965  0.65147360     0.08490
H1054       H  0.44165441  0.66497518  0.62147479     0.08480
H1055       H  0.44261442  0.66487673  0.65719971     0.08480
H1056       H  0.42334718  0.61980698  0.63961866     0.05250
C1057       C  0.46439180  0.13135167  0.60587239    -0.20550
C1058       C  0.50083163  0.15608766  0.60601462    -0.07120
C1059       C  0.54078033  0.13670845  0.60128333     0.13750
C1060       C  0.54418077  0.09277321  0.60311874    -0.20610
C1061       C  0.50810681  0.06794417  0.60654840    -0.07120
C1062       C  0.46750552  0.08726302  0.60441212     0.13740
C1063       C  0.42733736  0.06319298  0.59907276    -0.23960
H1064       H  0.43350759  0.14635852  0.60719650     0.15020
H1065       H  0.57521195  0.07800448  0.60227911     0.15050
C1066       C  0.58009760  0.16089458  0.59370309    -0.23900
H1067       H  0.40983625  0.07878786  0.58279559     0.05270
H1068       H  0.40684143  0.06314295  0.61688158     0.08490
H1069       H  0.43354725  0.03043207  0.59226889     0.08490
H1070       H  0.60398366  0.15845466  0.60960253     0.08480
H1071       H  0.57361906  0.19464733  0.58935476     0.08480
H1072       H  0.59370241  0.14712341  0.57540685     0.05250
C1073       C  0.06666775  0.96821332  0.49943230    -0.20550
C1074       C  0.05933668  0.97472736  0.52626297    -0.07120
C1075       C  0.03477162  0.01023357  0.53413295     0.13750
C1076       C  0.01385272  0.03484517  0.51495678    -0.20610
C1077       C  0.01636029  0.02429970  0.48815971    -0.07120
C1078       C  0.04572974  0.99254513  0.48031193     0.13740
C1079       C  0.05386567  0.98245629  0.45189572    -0.23960
H1080       H  0.08542170  0.94105760  0.49335722     0.15020
H1081       H  0.99314885  0.06049357  0.52106178     0.15050
C1082       C  0.02801044  0.02016676  0.56282946    -0.23900
H1083       H  0.08095667  0.96028247  0.44930662     0.05270
H1084       H  0.06098483  0.01180986  0.44070442     0.08490
H1085       H  0.02553878  0.96673684  0.44404619     0.08490
H1086       H  0.05904901  0.02554803  0.57242055     0.08480
H1087       H  0.01174914  0.99343357  0.57266555     0.08480
H1088       H  0.00825853  0.04899426  0.56565011     0.05250
C1089       C  0.90679577  0.72953546  0.51373709    -0.20550
C1090       C  0.93801382  0.76118781  0.51363010    -0.07120
C1091       C  0.96296320  0.76740644  0.49086917     0.13750
C1092       C  0.95655757  0.74111930  0.46894770    -0.20610
C1093       C  0.92653279  0.70836395  0.46961316    -0.07120
C1094       C  0.90086199  0.70295551  0.49204436     0.13740
C1095       C  0.86677838  0.66969404  0.49296375    -0.23960
H1096       H  0.88738429  0.72501336  0.53115523     0.15020
H1097       H  0.97603028  0.74521977  0.45151079     0.15050
C1098       C  0.99765683  0.80000688  0.49010384    -0.23900
H1099       H  0.84875055  0.67068763  0.51177199     0.05270
H1100       H  0.88114302  0.63773759  0.49103923     0.08490
H1101       H  0.84410623  0.67491496  0.47662001     0.08490
H1102       H  0.02087658  0.79354205  0.50598048     0.08480
H1103       H  0.98394667  0.83209774  0.49284946     0.08480
H1104       H  0.01493399  0.79962674  0.47101787     0.05250
C1105       C  0.74949152  0.92455426  0.64989737    -0.20550
C1106       C  0.72307433  0.90949870  0.62993644    -0.07120
C1107       C  0.74039895  0.88575015  0.60884477     0.13750
C1108       C  0.78355518  0.87582675  0.60896392    -0.20610
C1109       C  0.80945279  0.88905333  0.62957457    -0.07120
C1110       C  0.79291361  0.91492247  0.64976364     0.13740
C1111       C  0.82085706  0.93119813  0.67141721    -0.23960
H1112       H  0.73581063  0.94218052  0.66616235     0.15020
H1113       H  0.79703740  0.85679794  0.59323912     0.15050
C1114       C  0.71319723  0.86922944  0.58677684    -0.23900
H1115       H  0.80278257  0.95078866  0.68575995     0.05270
H1116       H  0.84643960  0.95103161  0.66285817     0.08490
H1117       H  0.83523806  0.90415984  0.68215202     0.08490
H1118       H  0.69745783  0.89606414  0.57661274     0.08480
H1119       H  0.68879906  0.84730947  0.59459188     0.08480
H1120       H  0.73219112  0.85158790  0.57192781     0.05250
C1121       C  0.29270196  0.85285310  0.62860252    -0.20550
C1122       C  0.31401778  0.81475473  0.62332084    -0.07120
C1123       C  0.28949733  0.77782717  0.61948530     0.13750
C1124       C  0.24452482  0.78051586  0.61987634    -0.20610
C1125       C  0.22320541  0.81925812  0.62422435    -0.07120
C1126       C  0.24830654  0.85554327  0.62985288     0.13740
C1127       C  0.23043583  0.89779213  0.63829145    -0.23960
H1128       H  0.31107583  0.88116219  0.63234518     0.15020
H1129       H  0.22595825  0.75247107  0.61588178     0.15050
C1130       C  0.31063719  0.73604464  0.61385316    -0.23900
H1131       H  0.24658136  0.90839914  0.65650856     0.05270
H1132       H  0.19640933  0.89700063  0.64312937     0.08490
H1133       H  0.23610968  0.92164671  0.62263491     0.08490
H1134       H  0.33072019  0.72669444  0.63075781     0.08480
H1135       H  0.33067769  0.73873534  0.59592769     0.08480
H1136       H  0.28709802  0.71055490  0.61057261     0.05250
C1137       C  0.01898083  0.51775118  0.50801465    -0.20550
C1138       C  0.02736667  0.50361541  0.48240190    -0.07120
C1139       C  0.01662387  0.46156297  0.47547931     0.13750
C1140       C  0.99838055  0.43486235  0.49451453    -0.20610
C1141       C  0.98926667  0.44935811  0.52002941    -0.07120
C1142       C  0.00015169  0.49133706  0.52686063     0.13740
C1143       C  0.99312297  0.50840728  0.55413893    -0.23960
H1144       H  0.02554889  0.55048752  0.51293459     0.15020
H1145       H  0.99189942  0.40210641  0.48963056     0.15050
C1146       C  0.02288444  0.44508570  0.44789919    -0.23900
H1147       H  0.00374748  0.54176652  0.55570247     0.05270
H1148       H  0.01130973  0.48938436  0.56859473     0.08490
H1149       H  0.95890041  0.50757884  0.55912917     0.08490
H1150       H  0.05686150  0.44695507  0.44236158     0.08480
H1151       H  0.00377820  0.46408224  0.43391542     0.08480
H1152       H  0.01282960  0.41155340  0.44602285     0.05250
C1153       C  0.08769770  0.17906780  0.50236152    -0.20550
C1154       C  0.09829072  0.20057165  0.47905695    -0.07120
C1155       C  0.11358475  0.24234631  0.48064465     0.13750
C1156       C  0.11447942  0.26270535  0.50528416    -0.20610
C1157       C  0.09993801  0.24252002  0.52836882    -0.07120
C1158       C  0.08825187  0.19932954  0.52697159     0.13740
C1159       C  0.07349578  0.17498144  0.55081321    -0.23960
H1160       H  0.07580444  0.14696879  0.50101366     0.15020
H1161       H  0.12474892  0.29534848  0.50624464     0.15050
C1162       C  0.12601390  0.26650973  0.45627814    -0.23900
H1163       H  0.06491231  0.14186112  0.54583716     0.05270
H1164       H  0.04498979  0.19038151  0.55944320     0.08490
H1165       H  0.09918065  0.17365836  0.56563360     0.08490
H1166       H  0.09861600  0.26889171  0.44274715     0.08480
H1167       H  0.15253646  0.24994861  0.44618060     0.08480
H1168       H  0.13655185  0.29914152  0.46100168     0.05250
C1169       C  0.08317268  0.61986507  0.61821428    -0.20550
C1170       C  0.04462448  0.63792592  0.60972939    -0.07120
C1171       C  0.01089572  0.61075092  0.60265694     0.13750
C1172       C  0.01493978  0.56747894  0.60743467    -0.20610
C1173       C  0.05207229  0.55000746  0.61788716    -0.07120
C1174       C  0.08726591  0.57606753  0.62231304     0.13740
C1175       C  0.12816737  0.55803442  0.63260290    -0.23960
H1176       H  0.10984319  0.64000830  0.62261643     0.15020
H1177       H  0.98815018  0.54713032  0.60356071     0.15050
C1178       C  0.96997427  0.62627715  0.59069060    -0.23900
H1179       H  0.15237498  0.58301928  0.63548358     0.05270
H1180       H  0.14105343  0.53453701  0.61840939     0.08490
H1181       H  0.12249553  0.54226120  0.65182286     0.08490
H1182       H  0.97682016  0.64554560  0.57290193     0.08480
H1183       H  0.95158664  0.64502446  0.60526315     0.08480
H1184       H  0.94938048  0.59967837  0.58445661     0.05250
C1185       C  0.95114001  0.12013977  0.63031861    -0.20550
C1186       C  0.98924691  0.13906467  0.63792419    -0.07120
C1187       C  0.02257133  0.11305785  0.64720111     0.13750
C1188       C  0.01843015  0.06906992  0.64602257    -0.20610
C1189       C  0.98198069  0.04950602  0.63595510    -0.07120
C1190       C  0.94688442  0.07567143  0.62925940     0.13740
C1191       C  0.90494309  0.05788067  0.62093106    -0.23960
H1192       H  0.92515918  0.14025754  0.62411972     0.15020
H1193       H  0.04491193  0.04987682  0.65247146     0.15050
C1194       C  0.06243368  0.13089447  0.65916229    -0.23900
H1195       H  0.88005725  0.08279576  0.62018569     0.05270
H1196       H  0.89421579  0.03348816  0.63521164     0.08490
H1197       H  0.90770062  0.04457868  0.60084028     0.08490
H1198       H  0.05430557  0.15577018  0.67376946     0.08480
H1199       H  0.08352943  0.14387107  0.64371595     0.08480
H1200       H  0.08094846  0.10612469  0.66958592     0.05250
C1201       C  0.78527214  0.31131627  0.63145391    -0.20550
C1202       C  0.81380990  0.34477093  0.63198712    -0.07120
C1203       C  0.79853471  0.38683531  0.63551429     0.13750
C1204       C  0.75480848  0.39449064  0.63512712    -0.20610
C1205       C  0.72630163  0.36138708  0.63144618    -0.07120
C1206       C  0.74160699  0.31881428  0.63119380     0.13740
C1207       C  0.71284485  0.28066833  0.63068110    -0.23960
H1208       H  0.79727614  0.27919845  0.62992832     0.15020
H1209       H  0.74293946  0.42667327  0.63651089     0.15050
C1210       C  0.82769203  0.42387364  0.64007045    -0.23900
H1211       H  0.73069023  0.25070493  0.63370990     0.05270
H1212       H  0.69707143  0.27799791  0.61130458     0.08490
H1213       H  0.68888483  0.28291881  0.64665736     0.08490
H1214       H  0.84588931  0.43122419  0.62194239     0.08480
H1215       H  0.84967619  0.41658074  0.65647175     0.08480
H1216       H  0.80981161  0.45297553  0.64547247     0.05250
C1217       C  0.24261964  0.31932461  0.62647331    -0.20550
C1218       C  0.22715813  0.36057594  0.63099558    -0.07120
C1219       C  0.25473285  0.39515752  0.63146968     0.13750
C1220       C  0.29755339  0.38747680  0.62768720    -0.20610
C1221       C  0.31352595  0.34600095  0.62442104    -0.07120
C1222       C  0.28572511  0.31146006  0.62339313     0.13740
C1223       C  0.30082440  0.26647199  0.62006781    -0.23960
H1224       H  0.22090463  0.29286990  0.62557991     0.15020
H1225       H  0.31876782  0.41435621  0.62801328     0.15050
C1226       C  0.23985809  0.43967422  0.63730585    -0.23900
H1227       H  0.27448308  0.24348433  0.62222021     0.05270
H1228       H  0.32491314  0.25875918  0.63518965     0.08490
H1229       H  0.31427019  0.26210417  0.60007988     0.08490
H1230       H  0.22156657  0.44021194  0.65600973     0.08480
H1231       H  0.21996006  0.45176176  0.62105647     0.08480
H1232       H  0.26682699  0.46188975  0.63942053     0.05250
C1233       C  0.62542172  0.87569084  0.77915224    -0.20550
C1234       C  0.66340934  0.89648057  0.77216429    -0.07120
C1235       C  0.67423007  0.90023848  0.74539097     0.13750
C1236       C  0.64762170  0.88237361  0.72642180    -0.20610
C1237       C  0.61070104  0.85971600  0.73335154    -0.07120
C1238       C  0.59902340  0.85723180  0.76007997     0.13740
C1239       C  0.55963672  0.83415791  0.76859690    -0.23960
H1240       H  0.61676663  0.87280262  0.79972416     0.15020
H1241       H  0.65620930  0.88605573  0.70590673     0.15050
C1242       C  0.71336044  0.92368024  0.73663817    -0.23900
H1243       H  0.55569397  0.83458460  0.79029522     0.05270
H1244       H  0.56134175  0.80062687  0.76210718     0.08490
H1245       H  0.53133564  0.84952393  0.75985120     0.08490
H1246       H  0.74207931  0.90750303  0.74419697     0.08480
H1247       H  0.71229222  0.95668743  0.74413528     0.08480
H1248       H  0.71609334  0.92499237  0.71485885     0.05250
C1249       C  0.84450765  0.78536238  0.74845103    -0.20550
C1250       C  0.86348723  0.78859354  0.77309897    -0.07120
C1251       C  0.90805912  0.78597956  0.77493079     0.13750
C1252       C  0.93256630  0.78121989  0.75180067    -0.20610
C1253       C  0.91371899  0.77989230  0.72671964    -0.07120
C1254       C  0.86860792  0.78113872  0.72532058     0.13740
C1255       C  0.84485021  0.78052067  0.69970017    -0.23960
H1256       H  0.81033964  0.78837254  0.74721179     0.15020
H1257       H  0.96671372  0.77997192  0.75337839     0.15050
C1258       C  0.92990808  0.79050867  0.80106977    -0.23900
H1259       H  0.80997331  0.78116716  0.70267729     0.05270
H1260       H  0.85247130  0.75125378  0.68854081     0.08490
H1261       H  0.85316930  0.80916169  0.68823722     0.08490
H1262       H  0.91953830  0.76482604  0.81451870     0.08480
H1263       H  0.92188989  0.82164088  0.80998662     0.08480
H1264       H  0.96489865  0.78855366  0.79901766     0.05250
C1265       C  0.62228195  0.25844987  0.74372120    -0.20550
C1266       C  0.63202192  0.28315830  0.72167348    -0.07120
C1267       C  0.66924837  0.30801236  0.72182439     0.13750
C1268       C  0.69301802  0.31102066  0.74494434    -0.20610
C1269       C  0.68082533  0.28994765  0.76807105    -0.07120
C1270       C  0.64630171  0.26121263  0.76695948     0.13740
C1271       C  0.63236202  0.23547228  0.79034371    -0.23960
H1272       H  0.59370175  0.23953781  0.74348211     0.15020
H1273       H  0.71992000  0.33229056  0.74534776     0.15050
C1274       C  0.68323544  0.33416858  0.69854208    -0.23900
H1275       H  0.60398679  0.21609617  0.78589792     0.05270
H1276       H  0.62398829  0.25661612  0.80701202     0.08490
H1277       H  0.65799491  0.21319449  0.79598622     0.08490
H1278       H  0.68259966  0.36828333  0.70382744     0.08480
H1279       H  0.66296402  0.32957505  0.68108710     0.08480
H1280       H  0.71605920  0.32518554  0.69288362     0.05250
C1281       C  0.90244993  0.43098322  0.77465097    -0.20550
C1282       C  0.85909194  0.43831718  0.77021196    -0.07120
C1283       C  0.84571332  0.44811003  0.74425747     0.13750
C1284       C  0.87538122  0.44667590  0.72344578    -0.20610
C1285       C  0.91775427  0.43550313  0.72792275    -0.07120
C1286       C  0.93178481  0.42956330  0.75400654     0.13740
C1287       C  0.97745416  0.42035059  0.76071134    -0.23960
H1288       H  0.91371973  0.42474611  0.79440145     0.15020
H1289       H  0.86472273  0.45103198  0.70338312     0.15050
C1290       C  0.80058163  0.45945102  0.73794843    -0.23900
H1291       H  0.98886870  0.44415191  0.77507968     0.05270
H1292       H  0.99877132  0.42179618  0.74333855     0.08490
H1293       H  0.98007914  0.38837123  0.76967702     0.08490
H1294       H  0.78912891  0.48480289  0.75136330     0.08480
H1295       H  0.78037444  0.43098101  0.73956785     0.08480
H1296       H  0.79744849  0.47129809  0.71746120     0.05250
C1297       C  0.69180092  0.60035662  0.87041466    -0.20550
C1298       C  0.72661275  0.58002353  0.88242340    -0.07120
C1299       C  0.75616970  0.60569555  0.89628171     0.13750
C1300       C  0.75134798  0.64992193  0.89633022    -0.20610
C1301       C  0.71852217  0.67003330  0.88272859    -0.07120
C1302       C  0.68768118  0.64498312  0.87024240     0.13740
C1303       C  0.65145165  0.66547180  0.85587340    -0.23960
H1304       H  0.66854066  0.58155344  0.86015145     0.15020
H1305       H  0.77490853  0.66936406  0.90595778     0.15050
C1306       C  0.79395499  0.58772913  0.91057584    -0.23900
H1307       H  0.63001164  0.64157037  0.84709089     0.05270
H1308       H  0.66383239  0.68583774  0.83979879     0.08490
H1309       H  0.63270444  0.68522731  0.86977814     0.08490
H1310       H  0.81621340  0.57270080  0.89640829     0.08480
H1311       H  0.78332699  0.56453419  0.92549271     0.08480
H1312       H  0.81200431  0.61257543  0.92112989     0.05250
C1313       C  0.79329255  0.10101828  0.89500156    -0.20550
C1314       C  0.80953436  0.07869964  0.87328392    -0.07120
C1315       C  0.82991229  0.10137920  0.85283112     0.13750
C1316       C  0.82971018  0.14602041  0.85351476    -0.20610
C1317       C  0.80987766  0.16797307  0.87417374    -0.07120
C1318       C  0.79284521  0.14522712  0.89556245     0.13740
C1319       C  0.77192534  0.16759554  0.91829625    -0.23960
H1320       H  0.77877716  0.08377615  0.91111720     0.15020
H1321       H  0.84336955  0.16381462  0.83736150     0.15050
C1322       C  0.84989269  0.07905607  0.82973171    -0.23900
H1323       H  0.75895900  0.14507115  0.93305296     0.05270
H1324       H  0.74545444  0.18703120  0.91063609     0.08490
H1325       H  0.79508670  0.18836915  0.92830897     0.08490
H1326       H  0.82560633  0.06058669  0.81902181     0.08480
H1327       H  0.87531336  0.05749389  0.83673934     0.08480
H1328       H  0.86431602  0.10176559  0.81564628     0.05250
C1329       C  0.10377781  0.87157138  0.75312998    -0.20550
C1330       C  0.11970666  0.87865264  0.72775803    -0.07120
C1331       C  0.16035341  0.86282234  0.72110423     0.13750
C1332       C  0.18447811  0.84175465  0.74016610    -0.20610
C1333       C  0.16873183  0.83517187  0.76560611    -0.07120
C1334       C  0.12771718  0.85019886  0.77212644     0.13740
C1335       C  0.10954372  0.84483804  0.79936101    -0.23960
H1336       H  0.07164225  0.88137343  0.75776443     0.15020
H1337       H  0.21665766  0.83206784  0.73556697     0.15050
C1338       C  0.17807498  0.86727131  0.69376581    -0.23900
H1339       H  0.07683335  0.85770036  0.80090748     0.05270
H1340       H  0.12927322  0.86174075  0.81396787     0.08490
H1341       H  0.10853529  0.81064055  0.80428506     0.08490
H1342       H  0.18011802  0.90137687  0.68877228     0.08480
H1343       H  0.15736013  0.85089448  0.67945304     0.08480
H1344       H  0.21028922  0.85327124  0.69199033     0.05250
C1345       C  0.33976405  0.95523016  0.74762572    -0.20550
C1346       C  0.35899876  0.94955203  0.77237720    -0.07120
C1347       C  0.40303582  0.94034823  0.77311458     0.13750
C1348       C  0.42553431  0.93488941  0.74944358    -0.20610
C1349       C  0.40575023  0.93815334  0.72487515    -0.07120
C1350       C  0.36248439  0.94948104  0.72391375     0.13740
C1351       C  0.33955281  0.95302784  0.69808089    -0.23960
H1352       H  0.30635162  0.96290290  0.74673845     0.15020
H1353       H  0.45872142  0.92599709  0.75011253     0.15050
C1354       C  0.42653960  0.93376397  0.79852939    -0.23900
H1355       H  0.30560376  0.96123701  0.70091390     0.05270
H1356       H  0.34123772  0.92239132  0.68739947     0.08490
H1357       H  0.35427158  0.97820125  0.68588323     0.08490
H1358       H  0.41225154  0.90701146  0.80952614     0.08480
H1359       H  0.42530334  0.96311269  0.81050816     0.08480
H1360       H  0.46046103  0.92589657  0.79518741     0.05250
C1361       C  0.48987173  0.87440707  0.89388928    -0.20550
C1362       C  0.46873146  0.85694177  0.87239814    -0.07120
C1363       C  0.49130767  0.83623661  0.85219631     0.13750
C1364       C  0.53556647  0.83509814  0.85340516    -0.20610
C1365       C  0.55673236  0.85406813  0.87442975    -0.07120
C1366       C  0.53392187  0.87314475  0.89519300     0.13740
C1367       C  0.55600451  0.89276612  0.91842369    -0.23960
H1368       H  0.47181304  0.88977893  0.90940608     0.15020
H1369       H  0.55371643  0.82022322  0.83776973     0.15050
C1370       C  0.46874121  0.81612345  0.82938007    -0.23900
H1371       H  0.53309139  0.90621875  0.93283241     0.05270
H1372       H  0.57702427  0.91872817  0.91168490     0.08490
H1373       H  0.57519767  0.86838310  0.92870069     0.08490
H1374       H  0.45034547  0.84046985  0.81856681     0.08480
H1375       H  0.44679859  0.79136156  0.83675109     0.08480
H1376       H  0.49129024  0.80107860  0.81536894     0.05250
C1377       C  0.98751238  0.85499901  0.87099305    -0.20550
C1378       C  0.96742847  0.89268680  0.87842390    -0.07120
C1379       C  0.99221578  0.92841834  0.88468831     0.13750
C1380       C  0.03674958  0.92506900  0.88388009    -0.20610
C1381       C  0.05690100  0.88674488  0.87726539    -0.07120
C1382       C  0.03164075  0.85138267  0.87023185     0.13740
C1383       C  0.05003047  0.80971065  0.86116862    -0.23960
H1384       H  0.96836399  0.82790070  0.86567253     0.15020
H1385       H  0.05594094  0.95222593  0.88896654     0.15050
C1386       C  0.97194418  0.96948039  0.89309641    -0.23900
H1387       H  0.02586020  0.78965078  0.85144813     0.05270
H1388       H  0.06190441  0.79151133  0.87824632     0.08490
H1389       H  0.07571710  0.81498382  0.84668313     0.08490
H1390       H  0.95136100  0.96403874  0.91053435     0.08480
H1391       H  0.95268258  0.98263289  0.87682655     0.08480
H1392       H  0.99601019  0.99352515  0.89843692     0.05250
C1393       C  0.12815989  0.37040435  0.77734872    -0.20550
C1394       C  0.15417241  0.40288518  0.76742291    -0.07120
C1395       C  0.15329908  0.41116006  0.74012524     0.13750
C1396       C  0.12731809  0.38647042  0.72358662    -0.20610
C1397       C  0.10222628  0.35326560  0.73362722    -0.07120
C1398       C  0.10158443  0.34629331  0.76100086     0.13740
C1399       C  0.07522736  0.31138697  0.77275422    -0.23960
H1400       H  0.13198562  0.36105151  0.79769334     0.15020
H1401       H  0.12802529  0.39190234  0.70252572     0.15050
C1402       C  0.18184912  0.44419205  0.72826754    -0.23900
H1403       H  0.07895027  0.30954090  0.79445084     0.05270
H1404       H  0.08489450  0.28045581  0.76422171     0.08490
H1405       H  0.04126408  0.31723769  0.76844180     0.08490
H1406       H  0.21548290  0.43592474  0.73207395     0.08480
H1407       H  0.17467593  0.47550662  0.73717748     0.08480
H1408       H  0.17753607  0.44673396  0.70664081     0.05250
C1409       C  0.35701323  0.37088736  0.75493008    -0.20550
C1410       C  0.37875009  0.34741966  0.77403112    -0.07120
C1411       C  0.42327022  0.34238198  0.77115007     0.13750
C1412       C  0.44405361  0.36053567  0.74933106    -0.20610
C1413       C  0.42219703  0.38377334  0.73005195    -0.07120
C1414       C  0.37761726  0.38919672  0.73323864     0.13740
C1415       C  0.35031126  0.41401873  0.71446638    -0.23960
H1416       H  0.32309382  0.37518610  0.75694702     0.15020
H1417       H  0.47795010  0.35620323  0.74729935     0.15050
C1418       C  0.44973255  0.31762680  0.79037681    -0.23900
H1419       H  0.31811114  0.41994346  0.72260331     0.05270
H1420       H  0.34557827  0.39549837  0.69618735     0.08490
H1421       H  0.36445409  0.44550680  0.71052309     0.08490
H1422       H  0.43522672  0.28627386  0.79426113     0.08480
H1423       H  0.45338692  0.33599232  0.80879243     0.08480
H1424       H  0.48223622  0.31181262  0.78271146     0.05250
C1425       C  0.53837609  0.41993010  0.86232751    -0.20550
C1426       C  0.55977642  0.40332120  0.88424754    -0.07120
C1427       C  0.53622606  0.39185818  0.90693984     0.13750
C1428       C  0.49187201  0.39363875  0.90618674    -0.20610
C1429       C  0.47065104  0.40770232  0.88369427    -0.07120
C1430       C  0.49395823  0.42197755  0.86175910     0.13740
C1431       C  0.47182259  0.43810872  0.83753072    -0.23960
H1432       H  0.55628273  0.42918336  0.84502540     0.15020
H1433       H  0.47366784  0.38307567  0.92309444     0.15050
C1434       C  0.55654898  0.37818578  0.93236268    -0.23900
H1435       H  0.49471682  0.44809894  0.82209858     0.05270
H1436       H  0.45174734  0.46582468  0.84276568     0.08490
H1437       H  0.45150826  0.41286237  0.82919800     0.08490
H1438       H  0.59137851  0.38208536  0.93231664     0.08480
H1439       H  0.54880186  0.34452446  0.93639330     0.08480
H1440       H  0.54408424  0.39795122  0.94873722     0.05250
C1441       C  0.03954381  0.31166413  0.88093468    -0.20550
C1442       C  0.06026941  0.34014672  0.86409811    -0.07120
C1443       C  0.03595780  0.36867058  0.84895527     0.13750
C1444       C  0.99193586  0.36795431  0.85088773    -0.20610
C1445       C  0.97091088  0.34214990  0.86916307    -0.07120
C1446       C  0.99507706  0.31273533  0.88405888     0.13740
C1447       C  0.97486415  0.28358982  0.90388091    -0.23960
H1448       H  0.05838818  0.29024293  0.89278831     0.15020
H1449       H  0.97406596  0.38921112  0.83847641     0.15050
C1450       C  0.05585086  0.40069491  0.83083482    -0.23900
H1451       H  0.99863228  0.26284796  0.91355990     0.05270
H1452       H  0.95150709  0.26288555  0.89397347     0.08490
H1453       H  0.95891995  0.30243314  0.91950196     0.08490
H1454       H  0.07367286  0.38381526  0.81552387     0.08480
H1455       H  0.07701984  0.42221980  0.84182785     0.08480
H1456       H  0.03187452  0.42066828  0.82074761     0.05250
C1457       C  0.33807588  0.64451993  0.86050550    -0.20550
C1458       C  0.30426686  0.66940083  0.86996934    -0.07120
C1459       C  0.26894437  0.64863301  0.88161210     0.13750
C1460       C  0.26733227  0.60419665  0.88205762    -0.20610
C1461       C  0.29992570  0.57942206  0.87135879    -0.07120
C1462       C  0.33620593  0.59972533  0.86100326     0.13740
C1463       C  0.37207238  0.57410164  0.84956928    -0.23960
H1464       H  0.36524320  0.66010468  0.85177855     0.15020
H1465       H  0.23986143  0.58853329  0.89039486     0.15050
C1466       C  0.23258276  0.67281529  0.89380372    -0.23900
H1467       H  0.39787752  0.59464900  0.84200405     0.05270
H1468       H  0.36029798  0.55450120  0.83302141     0.08490
H1469       H  0.38545721  0.55301720  0.86493290     0.08490
H1470       H  0.21454001  0.69003654  0.87849473     0.08480
H1471       H  0.24483771  0.69546414  0.90847074     0.08480
H1472       H  0.20998921  0.65153913  0.90409963     0.05250
C1473       C  0.25433757  0.14551487  0.85833444    -0.20550
C1474       C  0.22800530  0.17028594  0.87428506    -0.07120
C1475       C  0.19667454  0.15121562  0.89010178     0.13750
C1476       C  0.19441957  0.10687263  0.89107542    -0.20610
C1477       C  0.22274436  0.08204451  0.87639589    -0.07120
C1478       C  0.25196982  0.10143319  0.85903260     0.13740
C1479       C  0.28104290  0.07591236  0.84142468    -0.23960
H1480       H  0.27773750  0.16079490  0.84588937     0.15020
H1481       H  0.17183546  0.09160467  0.90406886     0.15050
C1482       C  0.16678695  0.17762675  0.90645256    -0.23900
H1483       H  0.29981465  0.09653435  0.82808258     0.05270
H1484       H  0.26211205  0.05412762  0.82905324     0.08490
H1485       H  0.30382843  0.05733944  0.85333972     0.08490
H1486       H  0.14820193  0.19888181  0.89342742     0.08480
H1487       H  0.18499194  0.19708743  0.92059426     0.08480
H1488       H  0.14426898  0.15764646  0.91776773     0.05250
C1489       C  0.85988073  0.46586578  0.99883949    -0.20550
C1490       C  0.82526030  0.46833026  0.98164630    -0.07120
C1491       C  0.79293876  0.49839341  0.98613857     0.13750
C1492       C  0.79635374  0.52583348  0.00747831    -0.20610
C1493       C  0.82977120  0.52231909  0.02548751    -0.07120
C1494       C  0.86207265  0.49225779  0.02111944     0.13740
C1495       C  0.89777338  0.48725853  0.04037447    -0.23960
H1496       H  0.88488406  0.44309685  0.99496019     0.15020
H1497       H  0.77075589  0.54792392  0.01144615     0.15050
C1498       C  0.75318992  0.49958077  0.96970571    -0.23900
H1499       H  0.92050273  0.46233745  0.03402300     0.05270
H1500       H  0.88498041  0.47833648  0.05998792     0.08490
H1501       H  0.91516026  0.51762759  0.04208992     0.08490
H1502       H  0.73732581  0.46828931  0.97057775     0.08480
H1503       H  0.76063793  0.50707875  0.94896027     0.08480
H1504       H  0.73037317  0.52387250  0.97686413     0.05250
C1505       C  0.77338151  0.71199076  0.97454103    -0.20550
C1506       C  0.78124772  0.75511331  0.97992467    -0.07120
C1507       C  0.76206064  0.77323746  0.00252118     0.13750
C1508       C  0.73178520  0.75045450  0.01664064    -0.20610
C1509       C  0.72744242  0.70651027  0.01360409    -0.07120
C1510       C  0.74866718  0.68692227  0.99211710     0.13740
C1511       C  0.74608300  0.63986721  0.98819202    -0.23960
H1512       H  0.78674621  0.69790334  0.95691590     0.15020
H1513       H  0.71673337  0.76564250  0.03343733     0.15050
C1514       C  0.77499284  0.81626121  0.01282965    -0.23900
H1515       H  0.76391480  0.62956428  0.97041143     0.05270
H1516       H  0.71247754  0.63037669  0.98588493     0.08490
H1517       H  0.75972604  0.62343126  0.00550299     0.08490
H1518       H  0.76525684  0.84200449  0.99945263     0.08480
H1519       H  0.80990235  0.81707686  0.01536624     0.08480
H1520       H  0.76037844  0.82318197  0.03228899     0.05250
C1521       C  0.60017744  0.70164076  0.22486319    -0.20550
C1522       C  0.64417978  0.70067432  0.22835534    -0.07120
C1523       C  0.66084079  0.70838727  0.25369787     0.13750
C1524       C  0.63291618  0.71109674  0.27539433    -0.20610
C1525       C  0.58902425  0.70631461  0.27208699    -0.07120
C1526       C  0.57243947  0.70445009  0.24637312     0.13740
C1527       C  0.52541728  0.70402868  0.24158789    -0.23960
H1528       H  0.58738143  0.69694349  0.20531920     0.15020
H1529       H  0.64563859  0.71311454  0.29512140     0.15050
C1530       C  0.70782223  0.71052783  0.25823394    -0.23900
H1531       H  0.51798251  0.70469892  0.22024718     0.05270
H1532       H  0.51077246  0.73235310  0.25086728     0.08490
H1533       H  0.51096275  0.67506635  0.24994188     0.08490
H1534       H  0.72147040  0.73694444  0.24657814     0.08480
H1535       H  0.72291674  0.68036579  0.25214192     0.08480
H1536       H  0.71537204  0.71602833  0.27928041     0.05250
C1537       C  0.86704808  0.53080943  0.24329435    -0.20550
C1538       C  0.82705001  0.54952400  0.24044173    -0.07120
C1539       C  0.81530433  0.58253394  0.25771705     0.13750
C1540       C  0.84619449  0.60135600  0.27347076    -0.20610
C1541       C  0.88837353  0.58677816  0.27349777    -0.07120
C1542       C  0.89759108  0.54846974  0.26014261     0.13740
C1543       C  0.93948496  0.52670334  0.26266133    -0.23960
H1544       H  0.87598028  0.50507815  0.23027228     0.15020
H1545       H  0.83750035  0.62894721  0.28501355     0.15050
C1546       C  0.77112952  0.60084028  0.25748584    -0.23900
H1547       H  0.93953275  0.49507384  0.25310714     0.05270
H1548       H  0.94763605  0.52224871  0.28374665     0.08490
H1549       H  0.96317379  0.54630569  0.25250953     0.08490
H1550       H  0.74788433  0.57539951  0.26157268     0.08480
H1551       H  0.76401503  0.61529732  0.23808764     0.08480
H1552       H  0.76705718  0.62568792  0.27275389     0.05250
C1553       C  0.76964761  0.05599027  0.99358455    -0.20550
C1554       C  0.80218892  0.03858434  0.00905692    -0.07120
C1555       C  0.81490932  0.99638502  0.00401983     0.13750
C1556       C  0.79322815  0.97186157  0.98521872    -0.20610
C1557       C  0.75844230  0.98816788  0.97124878    -0.07120
C1558       C  0.74751166  0.03141688  0.97494085     0.13740
C1559       C  0.71050367  0.05112548  0.96079370    -0.23960
H1560       H  0.75857059  0.08774383  0.99803307     0.15020
H1561       H  0.80283241  0.93929597  0.98203331     0.15050
C1562       C  0.85009095  0.97645764  0.01970262    -0.23900
H1563       H  0.70478094  0.08428791  0.96720102     0.05270
H1564       H  0.68129660  0.03268537  0.96486691     0.08490
H1565       H  0.71673669  0.05172346  0.93931833     0.08490
H1566       H  0.84144974  0.97566591  0.04089202     0.08480
H1567       H  0.87950661  0.99521143  0.01712081     0.08480
H1568       H  0.85666937  0.94347345  0.01326401     0.05250
C1569       C  0.67016805  0.20068408  0.00212697    -0.20550
C1570       C  0.67404883  0.21975930  0.02692418    -0.07120
C1571       C  0.67660882  0.26453103  0.02819729     0.13750
C1572       C  0.68335697  0.28806150  0.00517731    -0.20610
C1573       C  0.68450982  0.26853238  0.98052893    -0.07120
C1574       C  0.67431603  0.22488024  0.97884205     0.13740
C1575       C  0.67070777  0.20321776  0.95267967    -0.23960
H1576       H  0.66755120  0.16653837  0.00089145     0.15020
H1577       H  0.68920747  0.32180109  0.00660490     0.15050
C1578       C  0.67443712  0.28830369  0.05381015    -0.23900
H1579       H  0.66451467  0.16878077  0.95480815     0.05270
H1580       H  0.70059272  0.20731899  0.94168537     0.08490
H1581       H  0.64431442  0.21749558  0.94132644     0.08490
H1582       H  0.70484975  0.30496484  0.05712836     0.08480
H1583       H  0.66775403  0.26730534  0.07081709     0.08480
H1584       H  0.64846210  0.31201906  0.05282868     0.05250
C1585       C  0.73282657  0.83889278  0.14251926    -0.20550
C1586       C  0.76352391  0.82025130  0.12614020    -0.07120
C1587       C  0.78534296  0.84595294  0.10768563     0.13750
C1588       C  0.77624367  0.88957499  0.10643042    -0.20610
C1589       C  0.74632128  0.90823810  0.12330823    -0.07120
C1590       C  0.72377916  0.88240367  0.14127393     0.13740
C1591       C  0.68916786  0.90016995  0.15863342    -0.23960
H1592       H  0.71551737  0.81921334  0.15630670     0.15020
H1593       H  0.79348075  0.90946721  0.09272078     0.15050
C1594       C  0.81946495  0.82813287  0.09002152    -0.23900
H1595       H  0.67288728  0.87493781  0.17001617     0.05270
H1596       H  0.66506201  0.91644686  0.14635788     0.08490
H1597       H  0.70258836  0.92281445  0.17299209     0.08490
H1598       H  0.80570314  0.80470668  0.07627405     0.08480
H1599       H  0.84440179  0.81274853  0.10209755     0.08480
H1600       H  0.83475933  0.85318424  0.07797258     0.05250
C1601       C  0.72690673  0.33528944  0.11587344    -0.20550
C1602       C  0.75916814  0.32125021  0.13272277    -0.07120
C1603       C  0.78071862  0.35160409  0.14817786     0.13750
C1604       C  0.76946877  0.39483134  0.14633775    -0.20610
C1605       C  0.73767607  0.40887984  0.12913072    -0.07120
C1606       C  0.71579051  0.37849297  0.11393153     0.13740
C1607       C  0.67948089  0.39116338  0.09646020    -0.23960
H1608       H  0.70987932  0.31209932  0.10442049     0.15020
H1609       H  0.78625966  0.41798968  0.15802621     0.15050
C1610       C  0.81682509  0.33899894  0.16581040    -0.23900
H1611       H  0.66350941  0.36317507  0.08791647     0.05270
H1612       H  0.69107024  0.41092185  0.07993431     0.08490
H1613       H  0.65552645  0.40910622  0.10804093     0.08490
H1614       H  0.84140755  0.32195071  0.15420951     0.08480
H1615       H  0.80515840  0.31839011  0.18190061     0.08480
H1616       H  0.83193702  0.36699207  0.17502551     0.05250
C1617       C  0.64098651  0.15116524  0.28455208    -0.20550
C1618       C  0.63772102  0.10682029  0.28864392    -0.07120
C1619       C  0.66606250  0.08009502  0.27489796     0.13750
C1620       C  0.69251854  0.09780270  0.25544164    -0.20610
C1621       C  0.68959909  0.14093989  0.24828340    -0.07120
C1622       C  0.66565915  0.16828225  0.26416910     0.13740
C1623       C  0.66334216  0.21494343  0.25819103    -0.23960
H1624       H  0.62144875  0.17267050  0.29599530     0.15020
H1625       H  0.71123015  0.07668841  0.24322037     0.15050
C1626       C  0.66696857  0.03278782  0.27835753    -0.23900
H1627       H  0.64291897  0.23207130  0.27253622     0.05270
H1628       H  0.65006340  0.22001525  0.23823405     0.08490
H1629       H  0.69559425  0.22874265  0.25901645     0.08490
H1630       H  0.64342775  0.02126697  0.29277966     0.08480
H1631       H  0.69890675  0.02285484  0.28508024     0.08480
H1632       H  0.66023298  0.01721927  0.25924957     0.05250
C1633       C  0.89711691  0.04693952  0.23461378    -0.20550
C1634       C  0.85410377  0.03585088  0.23412765    -0.07120
C1635       C  0.83537403  0.02027624  0.25760142     0.13750
C1636       C  0.85952185  0.01852260  0.28095861    -0.20610
C1637       C  0.90214137  0.03143608  0.28163919    -0.07120
C1638       C  0.92131251  0.04502072  0.25773007     0.13740
C1639       C  0.96670186  0.05956304  0.25621276    -0.23960
H1640       H  0.91172217  0.05876563  0.21671504     0.15020
H1641       H  0.84472829  0.00740950  0.29893354     0.15050
C1642       C  0.78976096  0.00692975  0.25865817    -0.23900
H1643       H  0.97559218  0.07037066  0.23613412     0.05270
H1644       H  0.98826261  0.03302730  0.26130607     0.08490
H1645       H  0.97151345  0.08666112  0.26976025     0.08490
H1646       H  0.78488772  0.97940618  0.24548770     0.08480
H1647       H  0.76918121  0.03363141  0.25262589     0.08480
H1648       H  0.78002623  0.99723671  0.27879819     0.05250
C1649       C  0.14047183  0.50080997  0.01145832    -0.20550
C1650       C  0.17129654  0.53164116  0.01699458    -0.07120
C1651       C  0.20276337  0.53998478  0.99762254     0.13750
C1652       C  0.20433531  0.51581028  0.97456441    -0.20610
C1653       C  0.17621160  0.48243897  0.97023818    -0.07120
C1654       C  0.14263209  0.47606454  0.98823587     0.13740
C1655       C  0.11083593  0.44152429  0.98370019    -0.23960
H1656       H  0.11673949  0.49367921  0.02625894     0.15020
H1657       H  0.22994101  0.52110402  0.96063477     0.15050
C1658       C  0.23762815  0.57172147  0.00132610    -0.23900
H1659       H  0.08672974  0.44040692  0.99966156     0.05270
H1660       H  0.12715427  0.41036464  0.98286117     0.08490
H1661       H  0.09426161  0.44718832  0.96478614     0.08490
H1662       H  0.26879426  0.55529966  0.00101436     0.08480
H1663       H  0.23487668  0.58893811  0.02008952     0.08480
H1664       H  0.23677902  0.59522991  0.98509708     0.05250
C1665       C  0.29063141  0.68823519  0.98574518    -0.20550
C1666       C  0.26163324  0.67927356  0.00560251    -0.07120
C1667       C  0.21766828  0.68802370  0.00113745     0.13750
C1668       C  0.20557624  0.71180352  0.97911117    -0.20610
C1669       C  0.23581198  0.72698220  0.96163971    -0.07120
C1670       C  0.27825447  0.71169468  0.96370208     0.13740
C1671       C  0.31194494  0.72150331  0.94377394    -0.23960
H1672       H  0.32377422  0.68028020  0.98846771     0.15020
H1673       H  0.17302688  0.72229111  0.97707045     0.15050
C1674       C  0.18280212  0.67399885  0.01954892    -0.23900
H1675       H  0.32571150  0.69160091  0.93601214     0.05270
H1676       H  0.33739777  0.74067571  0.95289648     0.08490
H1677       H  0.29859574  0.73908479  0.92710959     0.08490
H1678       H  0.18410625  0.69065065  0.03866916     0.08480
H1679       H  0.18482903  0.63952361  0.02241075     0.08480
H1680       H  0.15093463  0.68061454  0.01130511     0.05250
C1681       C  0.47629427  0.56118785  0.13195683    -0.20550
C1682       C  0.45390234  0.59189349  0.11770716    -0.07120
C1683       C  0.47634071  0.62368084  0.10406988     0.13750
C1684       C  0.52089607  0.62401342  0.10507756    -0.20610
C1685       C  0.54324232  0.59382932  0.11988840    -0.07120
C1686       C  0.52063813  0.56157522  0.13314982     0.13740
C1687       C  0.54297258  0.52674952  0.14798069    -0.23960
H1688       H  0.45886329  0.53680605  0.14236978     0.15020
H1689       H  0.53831951  0.64859862  0.09487700     0.15050
C1690       C  0.45329036  0.65826709  0.08955041    -0.23900
H1691       H  0.52038438  0.50277866  0.15563044     0.05270
H1692       H  0.56003938  0.54008037  0.16508757     0.08490
H1693       H  0.56574628  0.51029772  0.13473034     0.08490
H1694       H  0.43223013  0.67574765  0.10338237     0.08480
H1695       H  0.43395679  0.64435322  0.07358281     0.08480
H1696       H  0.47558980  0.68130192  0.08058084     0.05250
C1697       C  0.02303680  0.65119843  0.11553423    -0.20550
C1698       C  0.04533895  0.63458716  0.13695673    -0.07120
C1699       C  0.02283376  0.61849702  0.15884640     0.13750
C1700       C  0.97835338  0.61906442  0.15846576    -0.20610
C1701       C  0.95615799  0.63487447  0.13666899    -0.07120
C1702       C  0.97895935  0.65142345  0.11490107     0.13740
C1703       C  0.95777184  0.67042079  0.09101385    -0.23960
H1704       H  0.04021215  0.66451129  0.09901303     0.15020
H1705       H  0.96085978  0.60635820  0.17505457     0.15050
C1706       C  0.04527940  0.59958466  0.18218276    -0.23900
H1707       H  0.98104204  0.68413909  0.07697046     0.05270
H1708       H  0.93601223  0.69633595  0.09711037     0.08490
H1709       H  0.94018845  0.64564111  0.08014450     0.08490
H1710       H  0.06454610  0.62412203  0.19209080     0.08480
H1711       H  0.06610614  0.57319815  0.17561538     0.08480
H1712       H  0.02259081  0.58684094  0.19692689     0.05250
C1713       C  0.11986364  0.52169602  0.22844178    -0.20550
C1714       C  0.16336550  0.52691652  0.23224552    -0.07120
C1715       C  0.18001245  0.52232405  0.25786560     0.13750
C1716       C  0.15210133  0.51693552  0.27941649    -0.20610
C1717       C  0.10802206  0.51737454  0.27575734    -0.07120
C1718       C  0.09206277  0.51769593  0.24982930     0.13740
C1719       C  0.04534245  0.51820239  0.24473182    -0.23960
H1720       H  0.10711001  0.52521190  0.20878335     0.15020
H1721       H  0.16449595  0.51703290  0.29926315     0.15050
C1722       C  0.22659240  0.52729496  0.26272994    -0.23900
H1723       H  0.03803060  0.51598734  0.22341831     0.05270
H1724       H  0.03241696  0.54857239  0.25208258     0.08490
H1725       H  0.02996571  0.49119897  0.25493731     0.08490
H1726       H  0.23675502  0.55932759  0.25636543     0.08480
H1727       H  0.24447033  0.50299946  0.25141902     0.08480
H1728       H  0.23442624  0.52352717  0.28388635     0.05250
C1729       C  0.40581536  0.65798785  0.26268138    -0.20550
C1730       C  0.38703508  0.62367708  0.27590475    -0.07120
C1731       C  0.34492164  0.61222798  0.26973653     0.13750
C1732       C  0.32272956  0.63561223  0.25090043    -0.20610
C1733       C  0.34299414  0.66679427  0.23583766    -0.07120
C1734       C  0.38450480  0.67896174  0.24223047     0.13740
C1735       C  0.40659708  0.71289820  0.22663361    -0.23960
H1736       H  0.43764031  0.66755719  0.26778497     0.15020
H1737       H  0.29138492  0.62510527  0.24519370     0.15050
C1738       C  0.32373681  0.57288181  0.28018285    -0.23900
H1739       H  0.43845307  0.71969653  0.23458047     0.05270
H1740       H  0.38769591  0.74257503  0.22742769     0.08490
H1741       H  0.41022716  0.70282031  0.20581284     0.08490
H1742       H  0.29590847  0.58183063  0.29242775     0.08480
H1743       H  0.34495957  0.55213940  0.29169861     0.08480
H1744       H  0.31307432  0.55331813  0.26335110     0.05250
C1745       C  0.25417033  0.93927820  0.00514786    -0.20550
C1746       C  0.25165000  0.95510353  0.97938576    -0.07120
C1747       C  0.22354526  0.98952697  0.97448410     0.13750
C1748       C  0.20600255  0.01201258  0.99575167    -0.20610
C1749       C  0.21286049  0.99929899  0.02174014    -0.07120
C1750       C  0.23471893  0.96078154  0.02635318     0.13740
C1751       C  0.24016329  0.94414104  0.05389819    -0.23960
H1752       H  0.27382826  0.91180485  0.00898193     0.15020
H1753       H  0.18880007  0.04118503  0.99203018     0.15050
C1754       C  0.21068940  0.00338369  0.94729533    -0.23900
H1755       H  0.25764120  0.91356889  0.05413768     0.05270
H1756       H  0.20852247  0.93896093  0.06292369     0.08490
H1757       H  0.25805347  0.96710980  0.06599214     0.08490
H1758       H  0.21846679  0.97944601  0.93212221     0.08480
H1759       H  0.22577083  0.03415695  0.94243260     0.08480
H1760       H  0.17576963  0.00747391  0.94657302     0.05250
C1761       C  0.28898284  0.20528432  0.00296185    -0.20550
C1762       C  0.32428018  0.20881349  0.01947486    -0.07120
C1763       C  0.35311682  0.24262120  0.01524495     0.13750
C1764       C  0.34445099  0.27335079  0.99595622    -0.20610
C1765       C  0.30857128  0.27057309  0.98005555    -0.07120
C1766       C  0.28123902  0.23537759  0.98300156     0.13740
C1767       C  0.24351882  0.22993158  0.96529550    -0.23960
H1768       H  0.26680042  0.17965759  0.00614798     0.15020
H1769       H  0.36662234  0.29894988  0.99262088     0.15050
C1770       C  0.39435631  0.24541651  0.03004883    -0.23900
H1771       H  0.22486144  0.20138575  0.97057547     0.05270
H1772       H  0.25421064  0.22640221  0.94457968     0.08490
H1773       H  0.22244434  0.25802212  0.96691463     0.08490
H1774       H  0.41201881  0.21511929  0.02809104     0.08480
H1775       H  0.38882908  0.25236914  0.05111047     0.08480
H1776       H  0.41485469  0.27105179  0.02222069     0.05250
C1777       C  0.23141890  0.89146671  0.11683311    -0.20550
C1778       C  0.27050882  0.90578307  0.12651254    -0.07120
C1779       C  0.29996134  0.87560468  0.13585128     0.13750
C1780       C  0.28915748  0.83212983  0.13586445    -0.20610
C1781       C  0.24991521  0.81808576  0.12619626    -0.07120
C1782       C  0.22097726  0.84826045  0.11627375     0.13740
C1783       C  0.17820750  0.83528250  0.10602912    -0.23960
H1784       H  0.20847997  0.91444494  0.10990639     0.15020
H1785       H  0.31146323  0.80899493  0.14336691     0.15050
C1786       C  0.34204696  0.88934156  0.14657816    -0.23900
H1787       H  0.15872174  0.86310772  0.10028901     0.05270
H1788       H  0.16067155  0.81758141  0.12147217     0.08490
H1789       H  0.18207444  0.81504032  0.08835721     0.08490
H1790       H  0.33707329  0.91117938  0.16343276     0.08480
H1791       H  0.36037330  0.90583187  0.13098528     0.08480
H1792       H  0.36110296  0.86193199  0.15350794     0.05250
C1793       C  0.23691684  0.33883337  0.14207971    -0.20550
C1794       C  0.23621018  0.32218182  0.11664348    -0.07120
C1795       C  0.24039515  0.34900706  0.09481444     0.13750
C1796       C  0.24680366  0.39230508  0.09901303    -0.20610
C1797       C  0.25021783  0.40926801  0.12461702    -0.07120
C1798       C  0.24419045  0.38187557  0.14654102     0.13740
C1799       C  0.24627327  0.39618939  0.17474125    -0.23960
H1800       H  0.23397849  0.31743788  0.15868315     0.15020
H1801       H  0.25040229  0.41269604  0.08201906     0.15050
C1802       C  0.23841776  0.33181726  0.06718995    -0.23900
H1803       H  0.23959349  0.37000166  0.18874436     0.05270
H1804       H  0.22201977  0.42099609  0.17844826     0.08490
H1805       H  0.27869042  0.40745839  0.17921814     0.08490
H1806       H  0.20748903  0.31595373  0.06410893     0.08480
H1807       H  0.26435040  0.30854510  0.06397731     0.08480
H1808       H  0.24169676  0.35729219  0.05225576     0.05250
C1809       C  0.48234447  0.06258415  0.11322889    -0.20550
C1810       C  0.46333114  0.07565068  0.13676275    -0.07120
C1811       C  0.48887672  0.08567817  0.15857030     0.13750
C1812       C  0.53296713  0.08704045  0.15529446    -0.20610
C1813       C  0.55206159  0.07794408  0.13089173    -0.07120
C1814       C  0.52633200  0.06320788  0.10995248     0.13740
C1815       C  0.54387576  0.04763462  0.08408070    -0.23960
H1816       H  0.46255044  0.05386720  0.09672966     0.15020
H1817       H  0.55254441  0.09619640  0.17179053     0.15050
C1818       C  0.46999295  0.09366784  0.18542160    -0.23900
H1819       H  0.51968634  0.03004174  0.07268352     0.05270
H1820       H  0.57071159  0.02550722  0.08739437     0.08490
H1821       H  0.55343414  0.07488255  0.07171670     0.08490
H1822       H  0.45058412  0.06604212  0.19146517     0.08480
H1823       H  0.44987942  0.12234615  0.18530767     0.08480
H1824       H  0.49487754  0.09841462  0.20050643     0.05250
C1825       C  0.98480820  0.17907160  0.11317290    -0.20550
C1826       C  0.96397142  0.14368277  0.12381597    -0.07120
C1827       C  0.98815075  0.10935278  0.13337449     0.13750
C1828       C  0.03247935  0.11080107  0.13156523    -0.20610
C1829       C  0.05349109  0.14604247  0.12087515    -0.07120
C1830       C  0.02941132  0.18085341  0.11191603     0.13740
C1831       C  0.05072222  0.21927966  0.10049470    -0.23960
H1832       H  0.96613282  0.20552957  0.10607701     0.15020
H1833       H  0.05092083  0.08409372  0.13853844     0.15050
C1834       C  0.96729916  0.07050414  0.14472706    -0.23900
H1835       H  0.02730970  0.24349796  0.09415034     0.05270
H1836       H  0.07005163  0.21000535  0.08311699     0.08490
H1837       H  0.07159329  0.23382757  0.11548910     0.08490
H1838       H  0.94550112  0.05655279  0.13001849     0.08480
H1839       H  0.94921231  0.07895546  0.16273805     0.08480
H1840       H  0.99091648  0.04593814  0.15021586     0.05250
C1841       C  0.08333899  0.11028568  0.24397463    -0.20550
C1842       C  0.10071403  0.11972098  0.26868133    -0.07120
C1843       C  0.14286157  0.10721256  0.27404986     0.13750
C1844       C  0.16671832  0.08689357  0.25434836    -0.20610
C1845       C  0.14953146  0.07800630  0.22951469    -0.07120
C1846       C  0.10721166  0.08996534  0.22427977     0.13740
C1847       C  0.08756968  0.08285519  0.19765984    -0.23960
H1848       H  0.05035009  0.11784110  0.24036512     0.15020
H1849       H  0.19976791  0.07951508  0.25793029     0.15050
C1850       C  0.16249227  0.11414396  0.30069714    -0.23900
H1851       H  0.05413973  0.09388736  0.19707027     0.05270
H1852       H  0.08800367  0.04855620  0.19291843     0.08490
H1853       H  0.10542120  0.10050238  0.18233488     0.08490
H1854       H  0.14425751  0.09686577  0.31600174     0.08480
H1855       H  0.16260997  0.14846457  0.30537982     0.08480
H1856       H  0.19572737  0.10253329  0.30138885     0.05250
C1857       C  0.33457320  0.17208339  0.25521628    -0.20550
C1858       C  0.35237021  0.18484658  0.23116063    -0.07120
C1859       C  0.39524019  0.19882391  0.23094727     0.13750
C1860       C  0.41910356  0.19767059  0.25426963    -0.20610
C1861       C  0.40141935  0.18446603  0.27820050    -0.07120
C1862       C  0.35818228  0.17215077  0.27866791     0.13740
C1863       C  0.33665110  0.15804228  0.30362468    -0.23960
H1864       H  0.30196954  0.16159985  0.25574270     0.15020
H1865       H  0.45181120  0.20792716  0.25387140     0.15050
C1866       C  0.41628873  0.21629342  0.20658143    -0.23900
H1867       H  0.30397109  0.14652696  0.30005594     0.05270
H1868       H  0.33435096  0.18504547  0.31750709     0.08490
H1869       H  0.35504105  0.13184914  0.31261535     0.08490
H1870       H  0.39731999  0.24302884  0.19865699     0.08480
H1871       H  0.41972248  0.19120149  0.19154298     0.08480
H1872       H  0.44858382  0.22839387  0.21068229     0.05250
loop_ 
_geom_bond_atom_site_label_1 
_geom_bond_atom_site_label_2 
_geom_bond_distance 
_geom_bond_site_symmetry_2 
_ccdc_geom_bond_type 
C1           N19   1.331       .  A
C1           C38   1.484       .  S
C1         C1845   1.469       .  S
N2           N19   1.309       .  A
N2           N24   1.318       .  A
N2          Co39   2.021       .  S
C3           N28   1.327       .  A
C3           C41   1.444       .  S
C3           H48   1.082       .  S
H4           C45   1.081       .  S
C5           N29   1.335       .  A
C5            C9   1.457       .  S
C5           H34   1.079       .  S
Co6          N24   2.131       .  S
Co6          N14   2.062       .  S
Co6          N46   2.063       .  S
Co6          N22   2.135       .  S
Co6         Cl50   2.460       .  S
N7           C45   1.354   1_545  A
N7           N14   1.323       .  A
N7           Co8   2.145       .  S
Co8          N11   2.081       .  S
Co8          N28   2.040       .  S
Co8          N15   2.141       .  S
Co8         Cl50   2.432       .  S
C9           N47   1.353       .  A
C9         C1810   1.470       .  S
N10          N17   1.314       .  A
N10          N40   1.320       .  A
N10         Co43   2.048       .  S
N11          N29   1.317       .  A
N11          N47   1.323       .  A
N12          C41   1.364       .  A
N12          N22   1.333       .  A
H13          C38   1.081       .  S
N14          N35   1.320   1_545  A
N15          N33   1.316       .  A
N15          N20   1.337       .  A
C16          N20   1.366       .  A
C16          C44   1.441       .  S
C16        C1762   1.488       .  S
N17          C32   1.351       .  A
N17         Co39   2.119       .  S
C18          N46   1.334       .  A
C18          C21   1.455       .  S
C18          H52   1.082       .  S
C21          N42   1.358       .  A
C21        C1829   1.484       .  S
N22          N28   1.319       .  A
N23          C49   1.335       .  A
N23          N25   1.314       .  A
N23         Co39   2.053       .  S
N24          C38   1.353       .  A
N25          N53   1.321       .  A
N25         Co43   2.081       .  S
H26          C49   1.082       .  S
H27          C44   1.080       .  S
N29         Co43   2.068       .  S
N30          N42   1.331       .  A
N30          N46   1.322       .  A
N30         Co39   2.126       .  S
C31          N35   1.345       .  A
C31          C45   1.479       .  S
C31        C1778   1.494       .  S
C32          C51   1.478       .  S
C32          H36   1.081       .  S
N33          C44   1.328       .  A
N33         Co43   2.033       .  S
C37          N53   1.349       .  A
C37          C49   1.458       .  S
C37        C1794   1.459       .  S
Co39        Cl50   2.431       .  S
N40          C51   1.344       .  A
C41        C1749   1.479   1_545  S
Co43        Cl50   2.456       .  S
C51        C1858   1.499       .  S
C54          N72   1.356       .  A
C54          C91   1.451       .  S
C54        C1714   1.482       .  S
N55          N72   1.332       .  A
N55          N77   1.320       .  A
N55         Co92   2.116       .  S
C56          N81   1.343       .  A
C56          C94   1.460       .  S
C56         H101   1.081       .  S
H57          C98   1.082       .  S
C58          N82   1.332       .  A
C58          C62   1.451       .  S
C58          H87   1.082       .  S
Co59         N77   2.067       .  S
Co59         N67   2.090       .  S
Co59         N99   2.091       .  S
Co59         N75   2.094       .  S
Co59       Cl103   2.470       .  S
N60          C98   1.330       .  A
N60          N67   1.317       .  A
N60         Co61   2.046       .  S
Co61         N64   2.150       .  S
Co61         N81   2.103       .  S
Co61         N68   2.030       .  S
Co61       Cl103   2.411       .  S
C62         N100   1.366       .  A
C62        C1650   1.492       .  S
N63          N70   1.314       .  A
N63          N93   1.321       .  A
N63         Co96   2.085       .  S
N64          N82   1.317       .  A
N64         N100   1.335       .  A
N65          C94   1.355       .  A
N65          N75   1.330       .  A
H66          C91   1.082       .  S
N67          N88   1.326       .  A
N68          N86   1.318       .  A
N68          N73   1.310       .  A
C69          N73   1.328       .  A
C69          C97   1.480       .  S
C69        C1666   1.482       .  S
N70          C85   1.334       .  A
N70         Co92   2.052       .  S
C71          N99   1.346       .  A
C71          C74   1.473       .  S
C71         H105   1.081       .  S
C74          N95   1.342       .  A
C74        C1733   1.464       .  S
N75          N81   1.320       .  A
N76         C102   1.335       .  A
N76          N78   1.322       .  A
N76         Co92   2.080       .  S
N77          C91   1.334       .  A
N78         N106   1.329       .  A
N78         Co96   2.097       .  S
H79         C102   1.082       .  S
H80          C97   1.081       .  S
N82         Co96   2.044       .  S
N83          N95   1.314       .  A
N83          N99   1.315       .  A
N83         Co92   2.054       .  S
C84          N88   1.352       .  A
C84          C98   1.454       .  S
C84        C1698   1.473       .  S
C85         C104   1.466       .  S
C85          H89   1.075       .  S
N86          C97   1.354       .  A
N86         Co96   2.116       .  S
C90         N106   1.355       .  A
C90         C102   1.451       .  S
C90        C1682   1.476       .  S
Co92       Cl103   2.420       .  S
N93         C104   1.353       .  A
C94        C1781   1.490       .  S
Co96       Cl103   2.465       .  S
C104       C1797   1.489       .  S
C107        N125   1.352       .  A
C107        C144   1.456       .  S
C107       C1826   1.480       .  S
N108        N125   1.328       .  A
N108        N130   1.324       .  A
N108       Co145   2.092       .  S
C109        N134   1.324       .  A
C109        C147   1.444       .  S
C109        H154   1.082       .  S
H110        C151   1.080       .  S
C111        N135   1.347   1_565  A
C111        C115   1.466       .  S
C111        H140   1.081       .  S
Co112       N130   2.099       .  S
Co112       N120   2.064       .  S
Co112       N152   2.098       .  S
Co112       N128   2.123       .  S
Co112      Cl156   2.460       .  S
N113        C151   1.352       .  A
N113        N120   1.320       .  A
N113       Co114   2.126       .  S
Co114       N117   2.058       .  S
Co114       N134   2.037       .  S
Co114       N121   2.091       .  S
Co114      Cl156   2.440       .  S
C115        N153   1.346       .  A
C115       C1589   1.482       .  S
N116        N123   1.319       .  A
N116        N146   1.312       .  A
N116       Co149   2.027       .  S
N117        N135   1.319       .  A
N117        N153   1.322   1_545  A
N118        C147   1.363       .  A
N118        N128   1.333       .  A
H119        C144   1.081       .  S
N120        N141   1.320       .  A
N121        N139   1.315       .  A
N121        N126   1.324       .  A
C122        N126   1.354       .  A
C122        C150   1.460       .  S
C122       C1813   1.482       .  S
N123        C138   1.361       .  A
N123       Co145   2.155       .  S
C124        N152   1.346       .  A
C124        C127   1.466       .  S
C124        H158   1.081       .  S
C127        N148   1.354       .  A
C127       C1602   1.497       .  S
N128        N134   1.318       .  A
N129        C155   1.327       .  A
N129        N131   1.318       .  A
N129       Co145   2.042       .  S
N130        C144   1.340       .  A
N131        N159   1.337       .  A
N131       Co149   2.142       .  S
H132        C155   1.082       .  S
H133        C150   1.076       .  S
N135       Co149   2.112       .  S
N136        N148   1.329       .  A
N136        N152   1.323       .  A
N136       Co145   2.119       .  S
C137        N141   1.347       .  A
C137        C151   1.480       .  S
C137       C1634   1.499       .  S
C138        C157   1.492       .  S
C138        H142   1.081       .  S
N139        C150   1.332       .  A
N139       Co149   2.049       .  S
C143        N159   1.366       .  A
C143        C155   1.445       .  S
C143       C1570   1.489       .  S
Co145      Cl156   2.462       .  S
N146        C157   1.332       .  A
C147       C1621   1.482       .  S
Co149      Cl156   2.439       .  S
C157       C1554   1.486       .  S
C160        N178   1.342       .  A
C160        C197   1.465       .  S
C160       C1701   1.473       .  S
N161        N178   1.315       .  A
N161        N183   1.313       .  A
N161       Co198   2.031       .  S
C162        N187   1.334       .  A
C162        C200   1.453       .  S
C162        H207   1.082       .  S
H163        C204   1.081       .  S
C164        N188   1.345       .  A
C164        C168   1.464       .  S
C164        H193   1.081       .  S
Co165       N183   2.087       .  S
Co165       N173   2.041       .  S
Co165       N205   2.071       .  S
Co165       N181   2.105       .  S
Co165      Cl209   2.449       .  S
N166        C204   1.352       .  A
N166        N173   1.318       .  A
N166       Co167   2.115       .  S
Co167       N170   2.091       .  S
Co167       N187   2.071       .  S
Co167       N174   2.109       .  S
Co167      Cl209   2.442       .  S
C168        N206   1.354       .  A
C168       C1605   1.495       .  S
N169        N176   1.317       .  A
N169        N199   1.311       .  A
N169       Co202   2.031       .  S
N170        N188   1.321       .  A
N170        N206   1.329       .  A
N171        C200   1.356       .  A
N171        N181   1.331       .  A
H172        C197   1.081       .  S
N173        N194   1.311       .  A
N174        N192   1.324       .  A
N174        N179   1.324       .  A
C175        N179   1.350       .  A
C175        C203   1.460       .  S
C175       C1685   1.480       .  S
N176        C191   1.351       .  A
N176       Co198   2.115       .  S
C177        N205   1.342       .  A
C177        C180   1.464       .  S
C177        H211   1.082       .  S
C180        N201   1.350       .  A
C180       C1586   1.486       .  S
N181        N187   1.320       .  A
N182        C208   1.310       .  A
N182        N184   1.315       .  A
N182       Co198   2.002       .  S
N183        C197   1.344       .  A
N184        N212   1.342       .  A
N184       Co202   2.150       .  S
H185        C208   1.082       .  S
H186        C203   1.081       .  S
N188       Co202   2.112       .  S
N189        N201   1.325       .  A
N189        N205   1.316       .  A
N189       Co198   2.098       .  S
C190        N194   1.337       .  A
C190        C204   1.479       .  S
C190       C1538   1.466       .  S
C191        C210   1.476       .  S
C191        H195   1.081       .  S
N192        C203   1.343       .  A
N192       Co202   2.084       .  S
C196        N212   1.373       .  A
C196        C208   1.429       .  S
C196       C1509   1.490       .  S
Co198      Cl209   2.422       .  S
N199        C210   1.338       .  A
C200       C1522   1.482       .  S
Co202      Cl209   2.459       .  S
C210       C1493   1.467       .  S
C213        N231   1.349       .  A
C213        C250   1.470       .  S
C213       C1653   1.486       .  S
N214        N231   1.321       .  A
N214        N236   1.320       .  A
N214       Co251   2.074       .  S
C215        N240   1.329       .  A
C215        C253   1.447       .  S
C215        H260   1.082       .  S
H216        C257   1.081       .  S
C217        N241   1.337       .  A
C217        C221   1.456       .  S
C217        H246   1.081       .  S
Co218       N236   2.113       .  S
Co218       N226   2.062       .  S
Co218       N258   2.102       .  S
Co218       N234   2.141       .  S
Co218      Cl262   2.471       .  S
N219        C257   1.349       .  A
N219        N226   1.323       .  A
N219       Co220   2.126       .  S
Co220       N223   2.057       .  S
Co220       N240   2.040       .  S
Co220       N227   2.103       .  S
Co220      Cl262   2.426       .  S
C221        N259   1.346       .  A
C221       C1474   1.459       .  S
N222        N229   1.322       .  A
N222        N252   1.320       .  A
N222       Co255   2.053       .  S
N223        N241   1.315       .  A
N223        N259   1.323       .  A
N224        C253   1.369       .  A
N224        N234   1.334       .  A
H225        C250   1.081       .  S
N226        N247   1.320       .  A
N227        N245   1.314       .  A
N227        N232   1.325       .  A
C228        N232   1.358       .  A
C228        C256   1.462       .  S
C228       C1410   1.498       .  S
N229        C244   1.354       .  A
N229       Co251   2.138       .  S
C230        N258   1.341       .  A
C230        C233   1.463       .  S
C230        H264   1.081       .  S
C233        N254   1.355       .  A
C233       C1461   1.489       .  S
N234        N240   1.315       .  A
N235        C261   1.344       .  A
N235        N237   1.317       .  A
N235       Co251   2.082       .  S
N236        C250   1.350       .  A
N237        N265   1.322       .  A
N237       Co255   2.074       .  S
H238        C261   1.081       .  S
H239        C256   1.073       .  S
N241       Co255   2.073       .  S
N242        N254   1.330       .  A
N242        N258   1.327       .  A
N242       Co251   2.126       .  S
C243        N247   1.344       .  A
C243        C257   1.469       .  S
C243       C1442   1.477       .  S
C244        C263   1.478       .  S
C244        H248   1.081       .  S
N245        C256   1.339       .  A
N245       Co255   2.063       .  S
C249        N265   1.345       .  A
C249        C261   1.459       .  S
C249       C1429   1.468       .  S
Co251      Cl262   2.445       .  S
N252        C263   1.338       .  A
C253       C1394   1.493       .  S
Co255      Cl262   2.456       .  S
C263       C1765   1.482       .  S
C266        N284   1.355       .  A
C266        C303   1.457       .  S
C266       C1746   1.497       .  S
N267        N284   1.332       .  A
N267        N289   1.318       .  A
N267       Co304   2.113       .  S
C268        N293   1.344       .  A
C268        C306   1.466       .  S
C268        H313   1.081       .  S
H269        C310   1.081       .  S
C270        N294   1.332       .  A
C270        C274   1.456       .  S
C270        H299   1.079       .  S
Co271       N289   2.072       .  S
Co271       N279   2.072       .  S
Co271       N311   2.061       .  S
Co271       N287   2.087       .  S
Co271      Cl315   2.464       .  S
N272        C310   1.340   1_565  A
N272        N279   1.315       .  A
N272       Co273   2.060       .  S
Co273       N276   2.124       .  S
Co273       N293   2.102       .  S
Co273       N280   2.024       .  S
Co273      Cl315   2.416       .  S
C274        N312   1.358       .  A
C274       C1381   1.486       .  S
N275        N282   1.314       .  A
N275        N305   1.332       .  A
N275       Co308   2.115       .  S
N276        N294   1.323       .  A
N276        N312   1.329       .  A
N277        C306   1.354       .  A
N277        N287   1.326       .  A
H278        C303   1.079       .  S
N279        N300   1.318   1_565  A
N280        N298   1.315       .  A
N280        N285   1.309       .  A
C281        N285   1.332       .  A
C281        C309   1.479       .  S
C281       C1333   1.462       .  S
N282        C297   1.325       .  A
N282       Co304   2.026       .  S
C283        N311   1.335       .  A
C283        C286   1.454       .  S
C283        H317   1.081       .  S
C286        N307   1.344       .  A
C286       C1362   1.450       .  S
N287        N293   1.318       .  A
N288        C314   1.353       .  A
N288        N290   1.323       .  A
N288       Co304   2.146       .  S
N289        C303   1.339       .  A
N290        N318   1.321       .  A
N290       Co308   2.067       .  S
H291        C314   1.082       .  S
H292        C309   1.081       .  S
N294       Co308   2.067       .  S
N295        N307   1.321       .  A
N295        N311   1.315       .  A
N295       Co304   2.055       .  S
C296        N300   1.346       .  A
C296        C310   1.459       .  S
C296       C1477   1.462       .  S
C297        C316   1.441       .  S
C297        H301   1.082       .  S
N298        C309   1.350       .  A
N298       Co308   2.105       .  S
C302        N318   1.347       .  A
C302        C314   1.476       .  S
C302       C1458   1.497       .  S
Co304      Cl315   2.401       .  S
N305        C316   1.362       .  A
C306       C1346   1.499       .  S
Co308      Cl315   2.474       .  S
C316       C1669   1.483       .  S
C319        N337   1.355       .  A
C319        C356   1.444       .  S
C319       C1490   1.465       .  S
N320        N337   1.329       .  A
N320        N342   1.321       .  A
N320       Co357   2.102       .  S
C321        N346   1.345       .  A
C321        C359   1.473       .  S
C321        H366   1.077       .  S
H322        C363   1.081       .  S
C323        N347   1.338       .  A
C323        C327   1.461       .  S
C323        H352   1.082       .  S
Co324       N342   2.056       .  S
Co324       N332   2.080       .  S
Co324       N364   2.068       .  S
Co324       N340   2.074       .  S
Co324      Cl368   2.435       .  S
N325        C363   1.351       .  A
N325        N332   1.318       .  A
N325       Co326   2.112       .  S
Co326       N329   2.090       .  S
Co326       N346   2.093       .  S
Co326       N333   2.093       .  S
Co326      Cl368   2.467       .  S
C327        N365   1.351       .  A
C327       C1426   1.479       .  S
N328        N335   1.321       .  A
N328        N358   1.328       .  A
N328       Co361   2.091       .  S
N329        N347   1.323       .  A
N329        N365   1.325       .  A
N330        C359   1.350       .  A
N330        N340   1.320       .  A
H331        C356   1.081       .  S
N332        N353   1.322       .  A
N333        N351   1.318       .  A
N333        N338   1.324       .  A
C334        N338   1.354       .  A
C334        C362   1.467       .  S
C334       C1269   1.491       .  S
N335        C350   1.344       .  A
N335       Co357   2.104       .  S
C336        N364   1.332       .  A
C336        C339   1.462       .  S
C336        H370   1.080       .  S
C339        N360   1.354       .  A
C339       C1445   1.490       .  S
N340        N346   1.317       .  A
N341        C367   1.341       .  A
N341        N343   1.320       .  A
N341       Co357   2.085       .  S
N342        C356   1.330       .  A
N343        N371   1.325       .  A
N343       Co361   2.094       .  S
H344        C367   1.082       .  S
H345        C362   1.079       .  S
N347       Co361   2.090       .  S
N348        N360   1.328       .  A
N348        N364   1.318       .  A
N348       Co357   2.090       .  S
C349        N353   1.349       .  A
C349        C363   1.478       .  S
C349       C1298   1.507       .  S
C350        C369   1.466       .  S
C350        H354   1.081       .  S
N351        C362   1.342       .  A
N351       Co361   2.084       .  S
C355        N371   1.353       .  A
C355        C367   1.460       .  S
C355       C1317   1.474       .  S
Co357      Cl368   2.466       .  S
N358        C369   1.350       .  A
C359       C1282   1.492       .  S
Co361      Cl368   2.446       .  S
C369       C1573   1.491       .  S
C372        N390   1.329       .  A
C372        C409   1.489       .  S
C372       C1506   1.490       .  S
N373        N390   1.306       .  A
N373        N395   1.313       .  A
N373       Co410   2.017       .  S
C374        N399   1.335       .  A
C374        C412   1.450       .  S
C374        H419   1.082       .  S
H375        C416   1.081       .  S
C376        N400   1.331   1_545  A
C376        C380   1.451       .  S
C376        H405   1.081       .  S
Co377       N395   2.129       .  S
Co377       N385   2.100       .  S
Co377       N417   2.062       .  S
Co377       N393   2.105       .  S
Co377      Cl421   2.476       .  S
N378        C416   1.342       .  A
N378        N385   1.328       .  A
N378       Co379   2.108       .  S
Co379       N382   2.095       .  S
Co379       N399   2.060       .  S
Co379       N386   2.125       .  S
Co379      Cl421   2.429       .  S
C380        N418   1.356       .  A
C380       C1314   1.482       .  S
N381        N388   1.318       .  A
N381        N411   1.326       .  A
N381       Co414   2.069       .  S
N382        N400   1.314       .  A
N382        N418   1.330   1_565  A
N383        C412   1.355       .  A
N383        N393   1.330       .  A
H384        C409   1.081       .  S
N385        N406   1.322       .  A
N386        N404   1.320       .  A
N386        N391   1.330       .  A
C387        N391   1.360       .  A
C387        C415   1.448       .  S
C387       C1234   1.486       .  S
N388        C403   1.351       .  A
N388       Co410   2.126       .  S
C389        N417   1.333       .  A
C389        C392   1.456       .  S
C389        H423   1.082       .  S
C392        N413   1.362       .  A
C392       C1301   1.487       .  S
N393        N399   1.319       .  A
N394        C420   1.336       .  A
N394        N396   1.312       .  A
N394       Co410   2.046       .  S
N395        C409   1.363       .  A
N396        N424   1.320       .  A
N396       Co414   2.066       .  S
H397        C420   1.081       .  S
H398        C415   1.080       .  S
N400       Co414   2.049       .  S
N401        N413   1.333       .  A
N401        N417   1.323       .  A
N401       Co410   2.150       .  S
C402        N406   1.352       .  A
C402        C416   1.463       .  S
C402       C1378   1.479       .  S
C403        C422   1.472       .  S
C403        H407   1.074       .  S
N404        C415   1.334       .  A
N404       Co414   2.059       .  S
C408        N424   1.346       .  A
C408        C420   1.451       .  S
C408       C1365   1.451       .  S
Co410      Cl421   2.403       .  S
N411        C422   1.347       .  A
C412       C1250   1.480       .  S
Co414      Cl421   2.468       .  S
C422       C1557   1.502       .  S
C425        N443   1.355       .  A
C425        C462   1.455       .  S
C425       C1397   1.494       .  S
N426        N443   1.332       .  A
N426        N448   1.318       .  A
N426       Co463   2.102   1_455  S
C427        N452   1.338       .  A
C427        C465   1.460       .  S
C427        H472   1.081       .  S
H428        C469   1.080       .  S
C429        N453   1.328       .  A
C429        C433   1.454       .  S
C429        H458   1.082   1_455  S
Co430       N448   2.089       .  S
Co430       N438   2.043       .  S
Co430       N470   2.054       .  S
Co430       N446   2.100       .  S
Co430      Cl474   2.428       .  S
N431        C469   1.332       .  A
N431        N438   1.311       .  A
N431       Co432   2.032       .  S
Co432       N435   2.099       .  S
Co432       N452   2.079       .  S
Co432       N439   2.028       .  S
Co432      Cl474   2.437       .  S
C433        N471   1.355       .  A
C433       C1173   1.470       .  S
N434        N441   1.316       .  A
N434        N464   1.331       .  A
N434       Co467   2.108       .  S
N435        N453   1.317       .  A
N435        N471   1.327       .  A
N436        C465   1.356       .  A
N436        N446   1.328       .  A
H437        C462   1.078       .  S
N438        N459   1.310       .  A
N439        N457   1.316   1_455  A
N439        N444   1.313       .  A
C440        N444   1.336   1_655  A
C440        C468   1.482       .  S
C440       C1141   1.474       .  S
N441        C456   1.329       .  A
N441       Co463   2.044       .  S
C442        N470   1.331       .  A
C442        C445   1.452   1_455  S
C442        H476   1.080       .  S
C445        N466   1.358       .  A
C445       C1186   1.482       .  S
N446        N452   1.318       .  A
N447        C473   1.346       .  A
N447        N449   1.326       .  A
N447       Co463   2.108       .  S
N448        C462   1.342       .  A
N449        N477   1.314       .  A
N449       Co467   2.056       .  S
H450        C473   1.081       .  S
H451        C468   1.081       .  S
N453       Co467   2.044   1_455  S
N454        N466   1.330       .  A
N454        N470   1.317   1_655  A
N454       Co463   2.106       .  S
C455        N459   1.340       .  A
C455        C469   1.458       .  S
C455       C1218   1.448       .  S
C456        C475   1.446       .  S
C456        H460   1.082       .  S
N457        C468   1.350       .  A
N457       Co467   2.117       .  S
C461        N477   1.337       .  A
C461        C473   1.468       .  S
C461       C1202   1.472       .  S
Co463      Cl474   2.451   1_655  S
N464        C475   1.358       .  A
C465       C1157   1.493       .  S
Co467      Cl474   2.434   1_655  S
C475       C1285   1.474       .  S
C478        N496   1.331       .  A
C478        C515   1.482       .  S
C478       C1330   1.464       .  S
N479        N496   1.308       .  A
N479        N501   1.316       .  A
N479       Co516   2.015       .  S
C480        N505   1.328       .  A
C480        C518   1.447       .  S
C480        H525   1.082   1_455  S
H481        C522   1.076       .  S
C482        N506   1.341       .  A
C482        C486   1.462       .  S
C482        H511   1.079       .  S
Co483       N501   2.122       .  S
Co483       N491   2.074       .  S
Co483       N523   2.082       .  S
Co483       N499   2.123       .  S
Co483      Cl527   2.469       .  S
N484        C522   1.344       .  A
N484        N491   1.318   1_655  A
N484       Co485   2.103       .  S
Co485       N488   2.054       .  S
Co485       N505   2.046   1_655  S
Co485       N492   2.109       .  S
Co485      Cl527   2.422   1_655  S
C486        N524   1.342       .  A
C486       C1109   1.461       .  S
N487        N494   1.316       .  A
N487        N517   1.322       .  A
N487       Co520   2.059       .  S
N488        N506   1.317       .  A
N488        N524   1.321       .  A
N489        C518   1.362       .  A
N489        N499   1.332       .  A
H490        C515   1.081       .  S
N491        N512   1.319       .  A
N492        N510   1.317       .  A
N492        N497   1.330       .  A
C493        N497   1.358       .  A
C493        C521   1.446       .  S
C493       C1090   1.475       .  S
N494        C509   1.351       .  A
N494       Co516   2.122   1_655  S
C495        N523   1.339       .  A
C495        C498   1.463       .  S
C495        H529   1.081       .  S
C498        N519   1.363       .  A
C498       C1125   1.510       .  S
N499        N505   1.319       .  A
N500        C526   1.336       .  A
N500        N502   1.316       .  A
N500       Co516   2.056       .  S
N501        C515   1.351       .  A
N502        N530   1.320       .  A
N502       Co520   2.086   1_455  S
H503        C526   1.081       .  S
H504        C521   1.082       .  S
N506       Co520   2.088       .  S
N507        N519   1.335       .  A
N507        N523   1.323       .  A
N507       Co516   2.146       .  S
C508        N512   1.353   1_645  A
C508        C522   1.474   1_545  S
C508       C1189   1.499       .  S
C509        C528   1.477       .  S
C509        H513   1.081   1_655  S
N510        C521   1.329       .  A
N510       Co520   2.043       .  S
C514        N530   1.351       .  A
C514        C526   1.463       .  S
C514       C1170   1.483       .  S
Co516      Cl527   2.427       .  S
N517        C528   1.347       .  A
C518       C1074   1.481       .  S
Co520      Cl527   2.458   1_655  S
C528       C1253   1.504       .  S
C531        N549   1.363       .  A
C531        C568   1.460       .  S
C531       C1413   1.503       .  S
N532        N549   1.330       .  A
N532        N554   1.313       .  A
N532       Co569   2.103       .  S
C533        N558   1.340       .  A
C533        C571   1.466       .  S
C533        H578   1.079       .  S
H534        C575   1.079       .  S
C535        N559   1.325       .  A
C535        C539   1.447       .  S
C535        H564   1.082       .  S
Co536       N554   2.063       .  S
Co536       N544   2.031       .  S
Co536       N576   2.018       .  S
Co536       N552   2.070       .  S
Co536      Cl580   2.399       .  S
N537        C575   1.340       .  A
N537        N544   1.312       .  A
N537       Co538   2.050       .  S
Co538       N541   2.103       .  S
Co538       N558   2.075       .  S
Co538       N545   2.025       .  S
Co538      Cl580   2.450       .  S
C539        N577   1.354       .  A
C539       C1058   1.466       .  S
N540        N547   1.317       .  A
N540        N570   1.330       .  A
N540       Co573   2.111       .  S
N541        N559   1.319       .  A
N541        N577   1.326       .  A
N542        C571   1.350       .  A
N542        N552   1.322       .  A
H543        C568   1.066       .  S
N544        N565   1.305       .  A
N545        N563   1.315       .  A
N545        N550   1.311       .  A
C546        N550   1.336       .  A
C546        C574   1.480       .  S
C546       C1026   1.471       .  S
N547        C562   1.332       .  A
N547       Co569   2.048       .  S
C548        N576   1.320       .  A
C548        C551   1.442       .  S
C548        H582   1.082       .  S
C551        N572   1.357       .  A
C551       C1045   1.465       .  S
N552        N558   1.313       .  A
N553        C579   1.348       .  A
N553        N555   1.324       .  A
N553       Co569   2.115       .  S
N554        C568   1.333       .  A
N555        N583   1.311       .  A
N555       Co573   2.045       .  S
H556        C579   1.081       .  S
H557        C574   1.081       .  S
N559       Co573   2.032       .  S
N560        N572   1.327       .  A
N560        N576   1.315       .  A
N560       Co569   2.096       .  S
C561        N565   1.336       .  A
C561        C575   1.467       .  S
C561       C1221   1.457       .  S
C562        C581   1.451       .  S
C562        H566   1.082       .  S
N563        C574   1.352       .  A
N563       Co573   2.119       .  S
C567        N583   1.334       .  A
C567        C579   1.473       .  S
C567       C1205   1.476       .  S
Co569      Cl580   2.462       .  S
N570        C581   1.357       .  A
C571       C1010   1.484       .  S
Co573      Cl580   2.413       .  S
C581       C1266   1.477       .  S
C584        N602   1.364       .  A
C584        C621   1.444       .  S
C584       C1237   1.490       .  S
N585        N602   1.334       .  A
N585        N607   1.317       .  A
N585       Co622   2.129       .  S
C586        N611   1.336       .  A
C586        C624   1.457       .  S
C586        H631   1.081       .  S
H587        C628   1.081       .  S
C588        N612   1.327       .  A
C588        C592   1.447   1_565  S
C588        H617   1.080   1_565  S
Co589       N607   2.039       .  S
Co589       N597   2.072       .  S
Co589       N629   2.027       .  S
Co589       N605   2.073       .  S
Co589      Cl633   2.435       .  S
N590        C628   1.342       .  A
N590        N597   1.314       .  A
N590       Co591   2.066       .  S
Co591       N594   2.104       .  S
Co591       N611   2.069       .  S
Co591       N598   2.030       .  S
Co591      Cl633   2.434       .  S
C592        N630   1.355   1_545  A
C592       C1061   1.472       .  S
N593        N600   1.319       .  A
N593        N623   1.332       .  A
N593       Co626   2.122       .  S
N594        N612   1.320       .  A
N594        N630   1.325       .  A
N595        C624   1.353       .  A
N595        N605   1.326       .  A
H596        C621   1.080       .  S
N597        N618   1.317       .  A
N598        N616   1.317       .  A
N598        N603   1.310       .  A
C599        N603   1.330       .  A
C599        C627   1.492       .  S
C599        C981   1.478       .  S
N600        C615   1.333       .  A
N600       Co622   2.054       .  S
C601        N629   1.324       .  A
C601        C604   1.446       .  S
C601        H635   1.081       .  S
C604        N625   1.355       .  A
C604       C1042   1.469       .  S
N605        N611   1.311       .  A
N606        C632   1.354       .  A
N606        N608   1.325       .  A
N606       Co622   2.139       .  S
N607        C621   1.326       .  A
N608        N636   1.324       .  A
N608       Co626   2.092       .  S
H609        C632   1.081       .  S
H610        C627   1.081       .  S
N612       Co626   2.035       .  S
N613        N625   1.324       .  A
N613        N629   1.317       .  A
N613       Co622   2.095       .  S
C614        N618   1.344       .  A
C614        C628   1.467       .  S
C614       C1106   1.462       .  S
C615        C634   1.450       .  S
C615        H619   1.082       .  S
N616        C627   1.357       .  A
N616       Co626   2.145       .  S
C620        N636   1.351       .  A
C620        C632   1.479       .  S
C620       C1122   1.504       .  S
Co622      Cl633   2.447       .  S
N623        C634   1.359       .  A
C624        C994   1.474       .  S
Co626      Cl633   2.453       .  S
C634       C1349   1.486       .  S
C637        N655   1.350       .  A
C637        C674   1.473       .  S
C637       C1637   1.503       .  S
N638        N655   1.324       .  A
N638        N660   1.321       .  A
N638       Co675   2.105   1_655  S
C639        N664   1.349       .  A
C639        C677   1.459       .  S
C639        H684   1.078   1_655  S
H640        C681   1.080       .  S
C641        N665   1.339       .  A
C641        C645   1.464   1_455  S
C641        H670   1.081       .  S
Co642       N660   2.101       .  S
Co642       N650   2.101       .  S
Co642       N682   2.075   1_545  S
Co642       N658   2.097       .  S
Co642      Cl686   2.459   1_655  S
N643        C681   1.341       .  A
N643        N650   1.315       .  A
N643       Co644   2.075       .  S
Co644       N647   2.094       .  S
Co644       N664   2.108       .  S
Co644       N651   2.056   1_655  S
Co644      Cl686   2.435   1_655  S
C645        N683   1.350       .  A
C645        C962   1.475       .  S
N646        N653   1.315       .  A
N646        N676   1.332       .  A
N646       Co679   2.120       .  S
N647        N665   1.324   1_655  A
N647        N683   1.323       .  A
N648        C677   1.351       .  A
N648        N658   1.327       .  A
H649        C674   1.081       .  S
N650        N671   1.330       .  A
N651        N669   1.317       .  A
N651        N656   1.317       .  A
C652        N656   1.339       .  A
C652        C680   1.474       .  S
C652       C1154   1.479       .  S
N653        C668   1.322       .  A
N653       Co675   2.023       .  S
C654        N682   1.333       .  A
C654        C657   1.462   1_655  S
C654        H688   1.082       .  S
C657        N678   1.349       .  A
C657        C949   1.471       .  S
N658        N664   1.322       .  A
N659        C685   1.352       .  A
N659        N661   1.322       .  A
N659       Co675   2.126       .  S
N660        C674   1.349       .  A
N661        N689   1.317       .  A
N661       Co679   2.058       .  S
H662        C685   1.081       .  S
H663        C680   1.081       .  S
N665       Co679   2.092       .  S
N666        N678   1.323       .  A
N666        N682   1.315   1_455  A
N666       Co675   2.054   1_565  S
C667        N671   1.357       .  A
C667        C681   1.461       .  S
C667        C914   1.495       .  S
C668        C687   1.435       .  S
C668        H672   1.082       .  S
N669        C680   1.353       .  A
N669       Co679   2.109       .  S
C673        N689   1.341       .  A
C673        C685   1.475       .  S
C673        C930   1.478       .  S
Co675      Cl686   2.426       .  S
N676        C687   1.366       .  A
C677       C1077   1.496   1_655  S
Co679      Cl686   2.468       .  S
C687       C1842   1.473       .  S
C690        N708   1.344       .  A
C690        C727   1.472       .  S
C690       C1717   1.485       .  S
N691        N708   1.320       .  A
N691        N713   1.317       .  A
N691       Co728   2.061       .  S
C692        N717   1.324       .  A
C692        C730   1.440   1_655  S
C692        H737   1.082       .  S
H693        C734   1.081       .  S
C694        N718   1.337       .  A
C694        C698   1.455       .  S
C694        H723   1.082       .  S
Co695       N713   2.110       .  S
Co695       N703   2.068   1_455  S
Co695       N735   2.097       .  S
Co695       N711   2.110       .  S
Co695      Cl739   2.466   1_455  S
N696        C734   1.347       .  A
N696        N703   1.325       .  A
N696       Co697   2.118       .  S
Co697       N700   2.073       .  S
Co697       N717   2.033       .  S
Co697       N704   2.103       .  S
Co697      Cl739   2.430       .  S
C698        N736   1.352       .  A
C698        C882   1.471       .  S
N699        N706   1.319       .  A
N699        N729   1.314       .  A
N699       Co732   2.036       .  S
N700        N718   1.314       .  A
N700        N736   1.326       .  A
N701        C730   1.362       .  A
N701        N711   1.330       .  A
H702        C727   1.081       .  S
N703        N724   1.318   1_655  A
N704        N722   1.318       .  A
N704        N709   1.327       .  A
C705        N709   1.354       .  A
C705        C733   1.449       .  S
C705       C1093   1.471       .  S
N706        C721   1.353       .  A
N706       Co728   2.132   1_655  S
C707        N735   1.342       .  A
C707        C710   1.466       .  S
C707        H741   1.080       .  S
C710        N731   1.358       .  A
C710        C901   1.496       .  S
N711        N717   1.316   1_455  A
N712        C738   1.347       .  A
N712        N714   1.314   1_455  A
N712       Co728   2.085       .  S
N713        C727   1.352       .  A
N714        N742   1.315       .  A
N714       Co732   2.045       .  S
H715        C738   1.081       .  S
H716        C733   1.081       .  S
N718       Co732   2.074       .  S
N719        N731   1.329       .  A
N719        N735   1.324       .  A
N719       Co728   2.123       .  S
C720        N724   1.345   1_655  A
C720        C734   1.470       .  S
C720        C965   1.478       .  S
C721        C740   1.482       .  S
C721        H725   1.079       .  S
N722        C733   1.336       .  A
N722       Co732   2.057       .  S
C726        N742   1.340   1_455  A
C726        C738   1.465       .  S
C726        C946   1.474       .  S
Co728      Cl739   2.434   1_455  S
N729        C740   1.337       .  A
C730       C1138   1.473       .  S
Co732      Cl739   2.452       .  S
C740       C1541   1.493       .  S
C743        N761   1.336       .  A
C743        C780   1.483       .  S
C743       C1618   1.498       .  S
N744        N761   1.312       .  A
N744        N766   1.318       .  A
N744       Co781   2.043       .  S
C745        N770   1.322       .  A
C745        C783   1.434       .  S
C745        H790   1.083       .  S
H746        C787   1.081   1_565  S
C747        N771   1.345       .  A
C747        C751   1.467       .  S
C747        H776   1.080       .  S
Co748       N766   2.125       .  S
Co748       N756   2.081       .  S
Co748       N788   2.064       .  S
Co748       N764   2.128       .  S
Co748      Cl792   2.491       .  S
N749        C787   1.339       .  A
N749        N756   1.325       .  A
N749       Co750   2.100       .  S
Co750       N753   2.056       .  S
Co750       N770   2.019       .  S
Co750       N757   2.087       .  S
Co750      Cl792   2.398       .  S
C751        N789   1.345       .  A
C751        C933   1.475       .  S
N752        N759   1.321       .  A
N752        N782   1.323       .  A
N752       Co785   2.067       .  S
N753        N771   1.313       .  A
N753        N789   1.324       .  A
N754        C783   1.369       .  A
N754        N764   1.335       .  A
H755        C780   1.081       .  S
N756        N777   1.322   1_545  A
N757        N775   1.316       .  A
N757        N762   1.326       .  A
C758        N762   1.349       .  A
C758        C786   1.464       .  S
C758       C1029   1.495       .  S
N759        C774   1.349       .  A
N759       Co781   2.126       .  S
C760        N788   1.336       .  A
C760        C763   1.452       .  S
C760        H794   1.082       .  S
C763        N784   1.361       .  A
C763        C917   1.487       .  S
N764        N770   1.311       .  A
N765        C791   1.342       .  A
N765        N767   1.316       .  A
N765       Co781   2.064       .  S
N766        C780   1.356       .  A
N767        N795   1.318       .  A
N767       Co785   2.077       .  S
H768        C791   1.081       .  S
H769        C786   1.078       .  S
N771       Co785   2.095       .  S
N772        N784   1.333       .  A
N772        N788   1.326       .  A
N772       Co781   2.157       .  S
C773        N777   1.350       .  A
C773        C787   1.457   1_565  S
C773        C850   1.467       .  S
C774        C793   1.473       .  S
C774        H778   1.081       .  S
N775        C786   1.342       .  A
N775       Co785   2.079       .  S
C779        N795   1.347       .  A
C779        C791   1.460       .  S
C779        C869   1.467       .  S
Co781      Cl792   2.404       .  S
N782        C793   1.347       .  A
C783        C978   1.480       .  S
Co785      Cl792   2.471       .  S
C793       C1861   1.496       .  S
C796        N814   1.353       .  A
C796        C833   1.451       .  S
C796       C1730   1.476       .  S
N797        N814   1.327       .  A
N797        N819   1.319       .  A
N797       Co834   2.092       .  S
C798        N823   1.343       .  A
C798        C836   1.463       .  S
C798        H843   1.081       .  S
H799        C840   1.081       .  S
C800        N824   1.333       .  A
C800        C804   1.452       .  S
C800        H829   1.082       .  S
Co801       N819   2.065       .  S
Co801       N809   2.075       .  S
Co801       N841   2.066       .  S
Co801       N817   2.071       .  S
Co801      Cl845   2.443       .  S
N802        C840   1.351       .  A
N802        N809   1.317       .  A
N802       Co803   2.103       .  S
Co803       N806   2.102       .  S
Co803       N823   2.092       .  S
Co803       N810   2.075       .  S
Co803      Cl845   2.451       .  S
C804        N842   1.352       .  A
C804        C853   1.468       .  S
N805        N812   1.316       .  A
N805        N835   1.330       .  A
N805       Co838   2.098       .  S
N806        N824   1.324       .  A
N806        N842   1.327       .  A
N807        C836   1.347       .  A
N807        N817   1.321       .  A
H808        C833   1.079       .  S
N809        N830   1.322       .  A
N810        N828   1.318       .  A
N810        N815   1.318       .  A
C811        N815   1.348       .  A
C811        C839   1.469       .  S
C811        C997   1.482       .  S
N812        C827   1.334       .  A
N812       Co834   2.065       .  S
C813        N841   1.335       .  A
C813        C816   1.454       .  S
C813        H847   1.081       .  S
C816        N837   1.348       .  A
C816        C866   1.466       .  S
N817        N823   1.319       .  A
N818        C844   1.342       .  A
N818        N820   1.320       .  A
N818       Co834   2.093       .  S
N819        C833   1.333       .  A
N820        N848   1.323       .  A
N820       Co838   2.086       .  S
H821        C844   1.081       .  S
H822        C839   1.080       .  S
N824       Co838   2.075       .  S
N825        N837   1.325       .  A
N825        N841   1.316       .  A
N825       Co834   2.073       .  S
C826        N830   1.344       .  A
C826        C840   1.471       .  S
C826        C898   1.483       .  S
C827        C846   1.455       .  S
C827        H831   1.082       .  S
N828        C839   1.345       .  A
N828       Co838   2.089       .  S
C832        N848   1.351       .  A
C832        C844   1.467       .  S
C832        C885   1.489       .  S
Co834      Cl845   2.449       .  S
N835        C846   1.356       .  A
C836       C1013   1.474       .  S
Co838      Cl845   2.449       .  S
C846       C1525   1.481       .  S
C849        H856   1.085       .  S
C849        C850   1.400       .  A
C849        C854   1.398       .  A
C850        C851   1.410       .  A
C851        C852   1.405       .  A
C851        C858   1.506       .  S
C852        H857   1.084       .  S
C852        C853   1.402       .  A
C853        C854   1.414       .  A
C854        C855   1.509       .  S
C855        H859   1.111       .  S
C855        H860   1.108       .  S
C855        H861   1.110       .  S
C858        H862   1.110       .  S
C858        H863   1.110       .  S
C858        H864   1.111       .  S
C865        H872   1.084       .  S
C865        C866   1.403       .  A
C865        C870   1.406       .  A
C866        C867   1.412       .  A
C867        C868   1.394       .  A
C867        C874   1.510       .  S
C868        H873   1.084       .  S
C868        C869   1.400       .  A
C869        C870   1.410       .  A
C870        C871   1.505       .  S
C871        H875   1.111       .  S
C871        H876   1.109       .  S
C871        H877   1.108       .  S
C874        H878   1.110       .  S
C874        H879   1.107       .  S
C874        H880   1.111       .  S
C881        H888   1.085       .  S
C881        C882   1.400       .  A
C881        C886   1.404       .  A
C882        C883   1.406       .  A
C883        C884   1.405       .  A
C883        C890   1.506       .  S
C884        H889   1.082       .  S
C884        C885   1.409       .  A
C885        C886   1.420       .  A
C886        C887   1.509       .  S
C887        H891   1.111       .  S
C887        H892   1.110       .  S
C887        H893   1.109       .  S
C890        H894   1.111       .  S
C890        H895   1.110       .  S
C890        H896   1.111       .  S
C897        H904   1.084       .  S
C897        C898   1.402       .  A
C897        C902   1.411       .  A
C898        C899   1.412       .  A
C899        C900   1.408       .  A
C899        C906   1.507       .  S
C900        H905   1.083       .  S
C900        C901   1.406       .  A
C901        C902   1.420       .  A
C902        C903   1.507       .  S
C903        H907   1.111       .  S
C903        H908   1.107       .  S
C903        H909   1.110       .  S
C906        H910   1.110       .  S
C906        H911   1.111       .  S
C906        H912   1.111       .  S
C913        H920   1.084       .  S
C913        C914   1.405       .  A
C913        C918   1.411       .  A
C914        C915   1.421       .  A
C915        C916   1.410       .  A
C915        C922   1.507       .  S
C916        H921   1.084       .  S
C916        C917   1.400       .  A
C917        C918   1.414       .  A
C918        C919   1.504       .  S
C919        H923   1.111       .  S
C919        H924   1.109       .  S
C919        H925   1.110       .  S
C922        H926   1.107       .  S
C922        H927   1.110       .  S
C922        H928   1.111       .  S
C929        H936   1.084       .  S
C929        C930   1.404       .  A
C929        C934   1.410       .  A
C930        C931   1.417       .  A
C931        C932   1.402       .  A
C931        C938   1.509       .  S
C932        H937   1.084       .  S
C932        C933   1.398       .  A
C933        C934   1.413       .  A
C934        C935   1.504       .  S
C935        H939   1.111       .  S
C935        H940   1.111       .  S
C935        H941   1.106       .  S
C938        H942   1.110       .  S
C938        H943   1.108       .  S
C938        H944   1.111       .  S
C945        H952   1.084       .  S
C945        C946   1.405       .  A
C945        C950   1.408       .  A
C946        C947   1.418   1_455  A
C947        C948   1.391       .  A
C947        C954   1.512       .  S
C948        H953   1.083       .  S
C948        C949   1.399   1_655  A
C949        C950   1.411       .  A
C950        C951   1.506       .  S
C951        H955   1.111       .  S
C951        H956   1.110       .  S
C951        H957   1.110       .  S
C954        H958   1.109       .  S
C954        H959   1.110       .  S
C954        H960   1.111       .  S
C961        H968   1.084       .  S
C961        C962   1.404       .  A
C961        C966   1.409       .  A
C962        C963   1.414   1_655  A
C963        C964   1.398       .  A
C963        C970   1.510       .  S
C964        H969   1.084       .  S
C964        C965   1.403   1_455  A
C965        C966   1.412       .  A
C966        C967   1.505       .  S
C967        H971   1.111       .  S
C967        H972   1.110       .  S
C967        H973   1.109       .  S
C970        H974   1.108       .  S
C970        H975   1.110       .  S
C970        H976   1.111       .  S
C977        H984   1.084       .  S
C977        C978   1.408   1_565  A
C977        C982   1.411       .  A
C978        C979   1.414       .  A
C979        C980   1.405   1_545  A
C979        C986   1.508       .  S
C980        H985   1.085       .  S
C980        C981   1.407       .  A
C981        C982   1.415       .  A
C982        C983   1.506       .  S
C983        H987   1.111       .  S
C983        H988   1.110       .  S
C983        H989   1.110       .  S
C986        H990   1.107       .  S
C986        H991   1.110       .  S
C986        H992   1.111       .  S
C993       H1000   1.084       .  S
C993        C994   1.404       .  A
C993        C998   1.411       .  A
C994        C995   1.413       .  A
C995        C996   1.394       .  A
C995       C1002   1.510       .  S
C996       H1001   1.084       .  S
C996        C997   1.404       .  A
C997        C998   1.415       .  A
C998        C999   1.505       .  S
C999       H1003   1.111       .  S
C999       H1004   1.107       .  S
C999       H1005   1.110       .  S
C1002      H1006   1.106       .  S
C1002      H1007   1.110       .  S
C1002      H1008   1.111       .  S
C1009      H1016   1.084       .  S
C1009      C1010   1.407       .  A
C1009      C1014   1.403       .  A
C1010      C1011   1.418       .  A
C1011      C1012   1.403       .  A
C1011      C1018   1.507       .  S
C1012      H1017   1.085       .  S
C1012      C1013   1.402       .  A
C1013      C1014   1.409       .  A
C1014      C1015   1.507       .  S
C1015      H1019   1.111       .  S
C1015      H1020   1.111       .  S
C1015      H1021   1.108       .  S
C1018      H1022   1.107       .  S
C1018      H1023   1.111       .  S
C1018      H1024   1.111       .  S
C1025      H1032   1.083       .  S
C1025      C1026   1.406       .  A
C1025      C1030   1.409       .  A
C1026      C1027   1.410       .  A
C1027      C1028   1.404       .  A
C1027      C1034   1.508       .  S
C1028      H1033   1.082       .  S
C1028      C1029   1.409       .  A
C1029      C1030   1.418       .  A
C1030      C1031   1.507       .  S
C1031      H1035   1.111       .  S
C1031      H1036   1.106       .  S
C1031      H1037   1.110       .  S
C1034      H1038   1.110       .  S
C1034      H1039   1.110       .  S
C1034      H1040   1.109       .  S
C1041      H1048   1.081       .  S
C1041      C1042   1.412       .  A
C1041      C1046   1.397       .  A
C1042      C1043   1.406       .  A
C1043      C1044   1.394       .  A
C1043      C1050   1.509       .  S
C1044      H1049   1.083       .  S
C1044      C1045   1.409       .  A
C1045      C1046   1.401       .  A
C1046      C1047   1.507       .  S
C1047      H1051   1.111       .  S
C1047      H1052   1.110       .  S
C1047      H1053   1.110       .  S
C1050      H1054   1.111       .  S
C1050      H1055   1.109       .  S
C1050      H1056   1.111       .  S
C1057      H1064   1.085       .  S
C1057      C1058   1.393       .  A
C1057      C1062   1.398       .  A
C1058      C1059   1.420       .  A
C1059      C1060   1.395       .  A
C1059      C1066   1.508       .  S
C1060      H1065   1.084       .  S
C1060      C1061   1.395       .  A
C1061      C1062   1.423       .  A
C1062      C1063   1.507       .  S
C1063      H1067   1.111       .  S
C1063      H1068   1.110       .  S
C1063      H1069   1.108       .  S
C1066      H1070   1.110       .  S
C1066      H1071   1.107       .  S
C1066      H1072   1.111       .  S
C1073      H1080   1.085       .  S
C1073      C1074   1.397       .  A
C1073      C1078   1.405       .  A
C1074      C1075   1.418   1_565  A
C1075      C1076   1.412       .  A
C1075      C1082   1.506       .  S
C1076      H1081   1.084   1_455  S
C1076      C1077   1.404       .  A
C1077      C1078   1.420   1_545  A
C1078      C1079   1.500       .  S
C1079      H1083   1.111       .  S
C1079      H1084   1.111   1_565  S
C1079      H1085   1.101       .  S
C1082      H1086   1.110       .  S
C1082      H1087   1.108   1_545  S
C1082      H1088   1.111       .  S
C1089      H1096   1.084       .  S
C1089      C1090   1.406       .  A
C1089      C1094   1.400       .  A
C1090      C1091   1.411       .  A
C1091      C1092   1.405       .  A
C1091      C1098   1.506       .  S
C1092      H1097   1.084       .  S
C1092      C1093   1.406       .  A
C1093      C1094   1.407       .  A
C1094      C1095   1.507       .  S
C1095      H1099   1.111       .  S
C1095      H1100   1.109       .  S
C1095      H1101   1.111       .  S
C1098      H1102   1.111   1_655  S
C1098      H1103   1.109       .  S
C1098      H1104   1.111   1_655  S
C1105      H1112   1.084       .  S
C1105      C1106   1.401       .  A
C1105      C1110   1.403       .  A
C1106      C1107   1.415       .  A
C1107      C1108   1.397       .  A
C1107      C1114   1.510       .  S
C1108      H1113   1.085       .  S
C1108      C1109   1.397       .  A
C1109      C1110   1.409       .  A
C1110      C1111   1.505       .  S
C1111      H1115   1.111       .  S
C1111      H1116   1.111       .  S
C1111      H1117   1.110       .  S
C1114      H1118   1.110       .  S
C1114      H1119   1.110       .  S
C1114      H1120   1.111       .  S
C1121      H1128   1.085       .  S
C1121      C1122   1.402       .  A
C1121      C1126   1.405       .  A
C1122      C1123   1.416       .  A
C1123      C1124   1.422       .  A
C1123      C1130   1.504       .  S
C1124      H1129   1.084       .  S
C1124      C1125   1.412       .  A
C1125      C1126   1.425       .  A
C1126      C1127   1.509       .  S
C1127      H1131   1.111       .  S
C1127      H1132   1.101       .  S
C1127      H1133   1.110       .  S
C1130      H1134   1.110       .  S
C1130      H1135   1.110       .  S
C1130      H1136   1.111       .  S
C1137      H1144   1.085       .  S
C1137      C1138   1.400       .  A
C1137      C1142   1.402       .  A
C1138      C1139   1.417       .  A
C1139      C1140   1.406   1_455  A
C1139      C1146   1.507       .  S
C1140      H1145   1.084       .  S
C1140      C1141   1.404       .  A
C1141      C1142   1.415   1_655  A
C1142      C1143   1.503   1_455  S
C1143      H1147   1.110   1_655  S
C1143      H1148   1.110   1_655  S
C1143      H1149   1.109       .  S
C1146      H1150   1.110       .  S
C1146      H1151   1.109       .  S
C1146      H1152   1.111       .  S
C1153      H1160   1.085       .  S
C1153      C1154   1.405       .  A
C1153      C1158   1.405       .  A
C1154      C1155   1.409       .  A
C1155      C1156   1.408       .  A
C1155      C1162   1.506       .  S
C1156      H1161   1.083       .  S
C1156      C1157   1.411       .  A
C1157      C1158   1.416       .  A
C1158      C1159   1.508       .  S
C1159      H1163   1.111       .  S
C1159      H1164   1.110       .  S
C1159      H1165   1.110       .  S
C1162      H1166   1.110       .  S
C1162      H1167   1.110       .  S
C1162      H1168   1.111       .  S
C1169      H1176   1.081       .  S
C1169      C1170   1.412       .  A
C1169      C1174   1.405       .  A
C1170      C1171   1.418       .  A
C1171      C1172   1.394       .  A
C1171      C1178   1.511   1_455  S
C1172      H1177   1.083   1_455  S
C1172      C1173   1.401       .  A
C1173      C1174   1.404       .  A
C1174      C1175   1.506       .  S
C1175      H1179   1.111       .  S
C1175      H1180   1.110       .  S
C1175      H1181   1.111       .  S
C1178      H1182   1.111       .  S
C1178      H1183   1.109       .  S
C1178      H1184   1.111       .  S
C1185      H1192   1.084       .  S
C1185      C1186   1.401       .  A
C1185      C1190   1.412       .  A
C1186      C1187   1.415   1_655  A
C1187      C1188   1.397       .  A
C1187      C1194   1.511       .  S
C1188      H1193   1.083       .  S
C1188      C1189   1.407   1_455  A
C1189      C1190   1.423       .  A
C1190      C1191   1.503       .  S
C1191      H1195   1.111       .  S
C1191      H1196   1.111       .  S
C1191      H1197   1.107       .  S
C1194      H1198   1.110       .  S
C1194      H1199   1.107       .  S
C1194      H1200   1.111       .  S
C1201      H1208   1.084       .  S
C1201      C1202   1.391       .  A
C1201      C1206   1.398       .  A
C1202      C1203   1.423       .  A
C1203      C1204   1.401       .  A
C1203      C1210   1.510       .  S
C1204      H1209   1.084       .  S
C1204      C1205   1.395       .  A
C1205      C1206   1.427       .  A
C1206      C1207   1.512       .  S
C1207      H1211   1.111       .  S
C1207      H1212   1.109       .  S
C1207      H1213   1.109       .  S
C1210      H1214   1.109       .  S
C1210      H1215   1.111       .  S
C1210      H1216   1.111       .  S
C1217      H1224   1.084       .  S
C1217      C1218   1.408       .  A
C1217      C1222   1.391       .  A
C1218      C1219   1.399       .  A
C1219      C1220   1.385       .  A
C1219      C1226   1.510       .  S
C1220      H1225   1.083       .  S
C1220      C1221   1.412       .  A
C1221      C1222   1.404       .  A
C1222      C1223   1.507       .  S
C1223      H1227   1.111       .  S
C1223      H1228   1.110       .  S
C1223      H1229   1.108       .  S
C1226      H1230   1.110       .  S
C1226      H1231   1.107       .  S
C1226      H1232   1.111       .  S
C1233      H1240   1.083       .  S
C1233      C1234   1.413       .  A
C1233      C1238   1.409       .  A
C1234      C1235   1.407       .  A
C1235      C1236   1.402       .  A
C1235      C1242   1.508       .  S
C1236      H1241   1.082       .  S
C1236      C1237   1.413       .  A
C1237      C1238   1.408       .  A
C1238      C1239   1.505       .  S
C1239      H1243   1.109       .  S
C1239      H1244   1.110       .  S
C1239      H1245   1.110       .  S
C1242      H1246   1.109       .  S
C1242      H1247   1.110       .  S
C1242      H1248   1.111       .  S
C1249      H1256   1.085       .  S
C1249      C1250   1.395       .  A
C1249      C1254   1.404       .  A
C1250      C1251   1.413       .  A
C1251      C1252   1.412       .  A
C1251      C1258   1.507       .  S
C1252      H1257   1.082       .  S
C1252      C1253   1.410       .  A
C1253      C1254   1.427       .  A
C1254      C1255   1.506       .  S
C1255      H1259   1.111       .  S
C1255      H1260   1.110       .  S
C1255      H1261   1.108       .  S
C1258      H1262   1.110       .  S
C1258      H1263   1.111       .  S
C1258      H1264   1.111       .  S
C1265      H1272   1.084       .  S
C1265      C1266   1.399       .  A
C1265      C1270   1.409       .  A
C1266      C1267   1.416       .  A
C1267      C1268   1.401       .  A
C1267      C1274   1.508       .  S
C1268      H1273   1.085       .  S
C1268      C1269   1.404       .  A
C1269      C1270   1.422       .  A
C1270      C1271   1.505       .  S
C1271      H1275   1.111       .  S
C1271      H1276   1.109       .  S
C1271      H1277   1.109       .  S
C1274      H1278   1.111       .  S
C1274      H1279   1.106       .  S
C1274      H1280   1.110       .  S
C1281      H1288   1.084       .  S
C1281      C1282   1.407       .  A
C1281      C1286   1.397       .  A
C1282      C1283   1.421       .  A
C1283      C1284   1.410       .  A
C1283      C1290   1.504       .  S
C1284      H1289   1.084       .  S
C1284      C1285   1.402       .  A
C1285      C1286   1.412       .  A
C1286      C1287   1.511       .  S
C1287      H1291   1.110       .  S
C1287      H1292   1.109       .  S
C1287      H1293   1.111       .  S
C1290      H1294   1.110       .  S
C1290      H1295   1.107       .  S
C1290      H1296   1.111       .  S
C1297      H1304   1.082       .  S
C1297      C1298   1.412       .  A
C1297      C1302   1.415       .  A
C1298      C1299   1.427       .  A
C1299      C1300   1.405       .  A
C1299      C1306   1.509       .  S
C1300      H1305   1.085       .  S
C1300      C1301   1.399       .  A
C1301      C1302   1.410       .  A
C1302      C1303   1.504       .  S
C1303      H1307   1.111       .  S
C1303      H1308   1.110       .  S
C1303      H1309   1.110       .  S
C1306      H1310   1.110       .  S
C1306      H1311   1.106       .  S
C1306      H1312   1.111       .  S
C1313      H1320   1.084       .  S
C1313      C1314   1.404       .  A
C1313      C1318   1.397       .  A
C1314      C1315   1.416       .  A
C1315      C1316   1.410       .  A
C1315      C1322   1.505       .  S
C1316      H1321   1.084       .  S
C1316      C1317   1.402       .  A
C1317      C1318   1.409       .  A
C1318      C1319   1.504       .  S
C1319      H1323   1.111       .  S
C1319      H1324   1.107       .  S
C1319      H1325   1.110       .  S
C1322      H1326   1.110       .  S
C1322      H1327   1.111       .  S
C1322      H1328   1.111       .  S
C1329      H1336   1.085       .  S
C1329      C1330   1.400       .  A
C1329      C1334   1.401       .  A
C1330      C1331   1.415       .  A
C1331      C1332   1.402       .  A
C1331      C1338   1.502       .  S
C1332      H1337   1.085       .  S
C1332      C1333   1.399       .  A
C1333      C1334   1.416       .  A
C1334      C1335   1.506       .  S
C1335      H1339   1.111       .  S
C1335      H1340   1.109       .  S
C1335      H1341   1.109       .  S
C1338      H1342   1.109       .  S
C1338      H1343   1.110       .  S
C1338      H1344   1.111       .  S
C1345      H1352   1.083       .  S
C1345      C1346   1.411       .  A
C1345      C1350   1.411       .  A
C1346      C1347   1.420       .  A
C1347      C1348   1.405       .  A
C1347      C1354   1.507       .  S
C1348      H1353   1.085       .  S
C1348      C1349   1.402       .  A
C1349      C1350   1.412       .  A
C1350      C1351   1.506       .  S
C1351      H1355   1.111       .  S
C1351      H1356   1.111       .  S
C1351      H1357   1.110       .  S
C1354      H1358   1.109       .  S
C1354      H1359   1.110       .  S
C1354      H1360   1.111       .  S
C1361      H1368   1.085       .  S
C1361      C1362   1.397       .  A
C1361      C1366   1.393       .  A
C1362      C1363   1.407       .  A
C1363      C1364   1.399       .  A
C1363      C1370   1.506       .  S
C1364      H1369   1.084       .  S
C1364      C1365   1.399       .  A
C1365      C1366   1.409       .  A
C1366      C1367   1.508       .  S
C1367      H1371   1.111       .  S
C1367      H1372   1.110       .  S
C1367      H1373   1.110       .  S
C1370      H1374   1.109       .  S
C1370      H1375   1.111       .  S
C1370      H1376   1.110       .  S
C1377      H1384   1.085       .  S
C1377      C1378   1.398       .  A
C1377      C1382   1.398   1_655  A
C1378      C1379   1.413       .  A
C1379      C1380   1.410   1_655  A
C1379      C1386   1.506       .  S
C1380      H1385   1.084       .  S
C1380      C1381   1.406       .  A
C1381      C1382   1.421       .  A
C1382      C1383   1.508       .  S
C1383      H1387   1.111       .  S
C1383      H1388   1.107       .  S
C1383      H1389   1.106       .  S
C1386      H1390   1.110       .  S
C1386      H1391   1.109       .  S
C1386      H1392   1.111       .  S
C1393      H1400   1.082       .  S
C1393      C1394   1.408       .  A
C1393      C1398   1.409       .  A
C1394      C1395   1.412       .  A
C1395      C1396   1.414       .  A
C1395      C1402   1.505       .  S
C1396      H1401   1.084       .  S
C1396      C1397   1.411       .  A
C1397      C1398   1.409       .  A
C1398      C1399   1.505       .  S
C1399      H1403   1.111       .  S
C1399      H1404   1.110       .  S
C1399      H1405   1.110       .  S
C1402      H1406   1.111       .  S
C1402      H1407   1.110       .  S
C1402      H1408   1.111       .  S
C1409      H1416   1.084       .  S
C1409      C1410   1.402       .  A
C1409      C1414   1.403       .  A
C1410      C1411   1.421       .  A
C1411      C1412   1.409       .  A
C1411      C1418   1.506       .  S
C1412      H1417   1.083       .  S
C1412      C1413   1.406       .  A
C1413      C1414   1.426       .  A
C1414      C1415   1.507       .  S
C1415      H1419   1.111       .  S
C1415      H1420   1.109       .  S
C1415      H1421   1.109       .  S
C1418      H1422   1.110       .  S
C1418      H1423   1.108       .  S
C1418      H1424   1.111       .  S
C1425      H1432   1.084       .  S
C1425      C1426   1.406       .  A
C1425      C1430   1.404       .  A
C1426      C1427   1.417       .  A
C1427      C1428   1.402       .  A
C1427      C1434   1.508       .  S
C1428      H1433   1.085       .  S
C1428      C1429   1.399       .  A
C1429      C1430   1.408       .  A
C1430      C1431   1.506       .  S
C1431      H1435   1.111       .  S
C1431      H1436   1.111       .  S
C1431      H1437   1.110       .  S
C1434      H1438   1.107       .  S
C1434      H1439   1.111       .  S
C1434      H1440   1.110       .  S
C1441      H1448   1.084       .  S
C1441      C1442   1.403       .  A
C1441      C1446   1.413   1_455  A
C1442      C1443   1.412       .  A
C1443      C1444   1.393   1_455  A
C1443      C1450   1.505       .  S
C1444      H1449   1.081       .  S
C1444      C1445   1.402       .  A
C1445      C1446   1.421       .  A
C1446      C1447   1.506       .  S
C1447      H1451   1.111       .  S
C1447      H1452   1.110       .  S
C1447      H1453   1.110       .  S
C1450      H1454   1.096       .  S
C1450      H1455   1.108       .  S
C1450      H1456   1.111       .  S
C1457      H1464   1.084       .  S
C1457      C1458   1.407       .  A
C1457      C1462   1.416       .  A
C1458      C1459   1.422       .  A
C1459      C1460   1.405       .  A
C1459      C1466   1.508       .  S
C1460      H1465   1.085       .  S
C1460      C1461   1.399       .  A
C1461      C1462   1.414       .  A
C1462      C1463   1.504       .  S
C1463      H1467   1.111       .  S
C1463      H1468   1.111       .  S
C1463      H1469   1.110       .  S
C1466      H1470   1.108       .  S
C1466      H1471   1.105       .  S
C1466      H1472   1.111       .  S
C1473      H1480   1.085       .  S
C1473      C1474   1.397       .  A
C1473      C1478   1.395       .  A
C1474      C1475   1.409       .  A
C1475      C1476   1.403       .  A
C1475      C1482   1.505       .  S
C1476      H1481   1.084       .  S
C1476      C1477   1.400       .  A
C1477      C1478   1.415       .  A
C1478      C1479   1.510       .  S
C1479      H1483   1.111       .  S
C1479      H1484   1.110       .  S
C1479      H1485   1.109       .  S
C1482      H1486   1.111       .  S
C1482      H1487   1.110       .  S
C1482      H1488   1.111       .  S
C1489      H1496   1.084       .  S
C1489      C1490   1.405       .  A
C1489      C1494   1.408   1_556  A
C1490      C1491   1.410       .  A
C1491      C1492   1.393   1_556  A
C1491      C1498   1.511       .  S
C1492      H1497   1.084       .  S
C1492      C1493   1.404       .  A
C1493      C1494   1.408       .  A
C1494      C1495   1.504       .  S
C1495      H1499   1.110       .  S
C1495      H1500   1.111       .  S
C1495      H1501   1.110       .  S
C1498      H1502   1.110       .  S
C1498      H1503   1.105       .  S
C1498      H1504   1.111       .  S
C1505      H1512   1.083       .  S
C1505      C1506   1.412       .  A
C1505      C1510   1.425       .  A
C1506      C1507   1.416   1_556  A
C1507      C1508   1.395       .  A
C1507      C1514   1.515       .  S
C1508      H1513   1.086       .  S
C1508      C1509   1.404       .  A
C1509      C1510   1.420   1_554  A
C1510      C1511   1.502       .  S
C1511      H1515   1.111       .  S
C1511      H1516   1.110       .  S
C1511      H1517   1.109   1_556  S
C1514      H1518   1.104   1_554  S
C1514      H1519   1.111       .  S
C1514      H1520   1.111       .  S
C1521      H1528   1.084       .  S
C1521      C1522   1.402       .  A
C1521      C1526   1.400       .  A
C1522      C1523   1.415       .  A
C1523      C1524   1.411       .  A
C1523      C1530   1.504       .  S
C1524      H1529   1.084       .  S
C1524      C1525   1.405       .  A
C1525      C1526   1.411       .  A
C1526      C1527   1.506       .  S
C1527      H1531   1.111       .  S
C1527      H1532   1.110       .  S
C1527      H1533   1.107       .  S
C1530      H1534   1.110       .  S
C1530      H1535   1.107       .  S
C1530      H1536   1.111       .  S
C1537      H1544   1.084       .  S
C1537      C1538   1.401       .  A
C1537      C1542   1.409       .  A
C1538      C1539   1.411       .  A
C1539      C1540   1.399       .  A
C1539      C1546   1.508       .  S
C1540      H1545   1.085       .  S
C1540      C1541   1.408       .  A
C1541      C1542   1.416       .  A
C1542      C1543   1.495       .  S
C1543      H1547   1.111       .  S
C1543      H1548   1.112       .  S
C1543      H1549   1.099       .  S
C1546      H1550   1.109       .  S
C1546      H1551   1.110       .  S
C1546      H1552   1.111       .  S
C1553      H1560   1.085       .  S
C1553      C1554   1.407   1_556  A
C1553      C1558   1.414       .  A
C1554      C1555   1.414   1_545  A
C1555      C1556   1.411   1_554  A
C1555      C1562   1.506       .  S
C1556      H1561   1.083       .  S
C1556      C1557   1.407       .  A
C1557      C1558   1.420   1_565  A
C1558      C1559   1.507       .  S
C1559      H1563   1.111       .  S
C1559      H1564   1.111       .  S
C1559      H1565   1.108       .  S
C1562      H1566   1.110       .  S
C1562      H1567   1.111       .  S
C1562      H1568   1.111       .  S
C1569      H1576   1.084       .  S
C1569      C1570   1.403       .  A
C1569      C1574   1.414   1_554  A
C1570      C1571   1.418       .  A
C1571      C1572   1.402       .  A
C1571      C1578   1.504       .  S
C1572      H1577   1.085       .  S
C1572      C1573   1.397   1_554  A
C1573      C1574   1.420       .  A
C1574      C1575   1.500       .  S
C1575      H1579   1.111       .  S
C1575      H1580   1.102       .  S
C1575      H1581   1.110       .  S
C1578      H1582   1.110       .  S
C1578      H1583   1.109       .  S
C1578      H1584   1.110       .  S
C1585      H1592   1.084       .  S
C1585      C1586   1.403       .  A
C1585      C1590   1.404       .  A
C1586      C1587   1.418       .  A
C1587      C1588   1.408       .  A
C1587      C1594   1.507       .  S
C1588      H1593   1.084       .  S
C1588      C1589   1.402       .  A
C1589      C1590   1.416       .  A
C1590      C1591   1.508       .  S
C1591      H1595   1.111       .  S
C1591      H1596   1.111       .  S
C1591      H1597   1.109       .  S
C1594      H1598   1.109       .  S
C1594      H1599   1.111       .  S
C1594      H1600   1.111       .  S
C1601      H1608   1.082       .  S
C1601      C1602   1.404       .  A
C1601      C1606   1.411       .  A
C1602      C1603   1.417       .  A
C1603      C1604   1.413       .  A
C1603      C1610   1.506       .  S
C1604      H1609   1.084       .  S
C1604      C1605   1.405       .  A
C1605      C1606   1.416       .  A
C1606      C1607   1.506       .  S
C1607      H1611   1.109       .  S
C1607      H1612   1.108       .  S
C1607      H1613   1.110       .  S
C1610      H1614   1.111       .  S
C1610      H1615   1.108       .  S
C1610      H1616   1.111       .  S
C1617      H1624   1.084       .  S
C1617      C1618   1.420       .  A
C1617      C1622   1.403       .  A
C1618      C1619   1.411       .  A
C1619      C1620   1.408       .  A
C1619      C1626   1.505       .  S
C1620      H1625   1.083       .  S
C1620      C1621   1.413       .  A
C1621      C1622   1.400       .  A
C1622      C1623   1.506       .  S
C1623      H1627   1.111       .  S
C1623      H1628   1.111       .  S
C1623      H1629   1.110       .  S
C1626      H1630   1.104       .  S
C1626      H1631   1.110       .  S
C1626      H1632   1.110       .  S
C1633      H1640   1.085       .  S
C1633      C1634   1.404       .  A
C1633      C1638   1.406       .  A
C1634      C1635   1.418       .  A
C1635      C1636   1.415       .  A
C1635      C1642   1.503       .  S
C1636      H1641   1.083       .  S
C1636      C1637   1.408       .  A
C1637      C1638   1.422       .  A
C1638      C1639   1.508       .  S
C1639      H1643   1.111       .  S
C1639      H1644   1.109       .  S
C1639      H1645   1.110       .  S
C1642      H1646   1.109   1_545  S
C1642      H1647   1.107       .  S
C1642      H1648   1.111   1_545  S
C1649      H1656   1.084       .  S
C1649      C1650   1.408       .  A
C1649      C1654   1.417   1_554  A
C1650      C1651   1.421   1_554  A
C1651      C1652   1.399       .  A
C1651      C1658   1.504   1_556  S
C1652      H1657   1.086       .  S
C1652      C1653   1.399       .  A
C1653      C1654   1.412       .  A
C1654      C1655   1.504       .  S
C1655      H1659   1.111       .  S
C1655      H1660   1.110       .  S
C1655      H1661   1.111       .  S
C1658      H1662   1.111       .  S
C1658      H1663   1.101       .  S
C1658      H1664   1.110   1_554  S
C1665      H1672   1.085       .  S
C1665      C1666   1.389   1_556  A
C1665      C1670   1.399       .  A
C1666      C1667   1.434       .  A
C1667      C1668   1.402   1_554  A
C1667      C1674   1.509       .  S
C1668      H1673   1.084       .  S
C1668      C1669   1.387       .  A
C1669      C1670   1.427       .  A
C1670      C1671   1.499       .  S
C1671      H1675   1.110       .  S
C1671      H1676   1.111       .  S
C1671      H1677   1.098       .  S
C1674      H1678   1.106       .  S
C1674      H1679   1.100       .  S
C1674      H1680   1.111       .  S
C1681      H1688   1.084       .  S
C1681      C1682   1.402       .  A
C1681      C1686   1.402       .  A
C1682      C1683   1.411       .  A
C1683      C1684   1.408       .  A
C1683      C1690   1.506       .  S
C1684      H1689   1.084       .  S
C1684      C1685   1.405       .  A
C1685      C1686   1.415       .  A
C1686      C1687   1.508       .  S
C1687      H1691   1.111       .  S
C1687      H1692   1.109       .  S
C1687      H1693   1.111       .  S
C1690      H1694   1.111       .  S
C1690      H1695   1.109       .  S
C1690      H1696   1.111       .  S
C1697      H1704   1.083       .  S
C1697      C1698   1.400       .  A
C1697      C1702   1.392   1_455  A
C1698      C1699   1.413       .  A
C1699      C1700   1.405   1_455  A
C1699      C1706   1.507       .  S
C1700      H1705   1.084       .  S
C1700      C1701   1.404       .  A
C1701      C1702   1.418       .  A
C1702      C1703   1.512       .  S
C1703      H1707   1.111       .  S
C1703      H1708   1.110       .  S
C1703      H1709   1.110       .  S
C1706      H1710   1.109       .  S
C1706      H1711   1.110       .  S
C1706      H1712   1.111       .  S
C1713      H1720   1.084       .  S
C1713      C1714   1.398       .  A
C1713      C1718   1.400       .  A
C1714      C1715   1.414       .  A
C1715      C1716   1.413       .  A
C1715      C1722   1.501       .  S
C1716      H1721   1.084       .  S
C1716      C1717   1.405       .  A
C1717      C1718   1.413       .  A
C1718      C1719   1.499       .  S
C1719      H1723   1.111       .  S
C1719      H1724   1.106       .  S
C1719      H1725   1.110       .  S
C1722      H1726   1.110       .  S
C1722      H1727   1.110       .  S
C1722      H1728   1.111       .  S
C1729      H1736   1.083       .  S
C1729      C1730   1.406       .  A
C1729      C1734   1.405       .  A
C1730      C1731   1.416       .  A
C1731      C1732   1.398       .  A
C1731      C1738   1.509       .  S
C1732      H1737   1.086       .  S
C1732      C1733   1.402       .  A
C1733      C1734   1.407       .  A
C1734      C1735   1.505       .  S
C1735      H1739   1.107       .  S
C1735      H1740   1.110       .  S
C1735      H1741   1.110       .  S
C1738      H1742   1.110       .  S
C1738      H1743   1.105       .  S
C1738      H1744   1.110       .  S
C1745      H1752   1.083       .  S
C1745      C1746   1.404   1_554  A
C1745      C1750   1.411       .  A
C1746      C1747   1.424       .  A
C1747      C1748   1.404   1_565  A
C1747      C1754   1.506   1_565  S
C1748      H1753   1.085       .  S
C1748      C1749   1.398   1_546  A
C1749      C1750   1.417       .  A
C1750      C1751   1.506       .  S
C1751      H1755   1.111       .  S
C1751      H1756   1.110       .  S
C1751      H1757   1.109       .  S
C1754      H1758   1.106   1_545  S
C1754      H1759   1.111       .  S
C1754      H1760   1.110       .  S
C1761      H1768   1.084       .  S
C1761      C1762   1.403       .  A
C1761      C1766   1.412   1_554  A
C1762      C1763   1.421       .  A
C1763      C1764   1.406   1_554  A
C1763      C1770   1.510       .  S
C1764      H1769   1.084       .  S
C1764      C1765   1.398       .  A
C1765      C1766   1.417       .  A
C1766      C1767   1.506       .  S
C1767      H1771   1.111       .  S
C1767      H1772   1.110       .  S
C1767      H1773   1.110       .  S
C1770      H1774   1.110       .  S
C1770      H1775   1.106       .  S
C1770      H1776   1.111       .  S
C1777      H1784   1.083       .  S
C1777      C1778   1.407       .  A
C1777      C1782   1.405       .  A
C1778      C1779   1.413       .  A
C1779      C1780   1.416       .  A
C1779      C1786   1.504       .  S
C1780      H1785   1.084       .  S
C1780      C1781   1.408       .  A
C1781      C1782   1.413       .  A
C1782      C1783   1.508       .  S
C1783      H1787   1.111       .  S
C1783      H1788   1.110       .  S
C1783      H1789   1.109       .  S
C1786      H1790   1.110       .  S
C1786      H1791   1.110       .  S
C1786      H1792   1.111       .  S
C1793      H1800   1.085       .  S
C1793      C1794   1.396       .  A
C1793      C1798   1.398       .  A
C1794      C1795   1.402       .  A
C1795      C1796   1.400       .  A
C1795      C1802   1.507       .  S
C1796      H1801   1.083       .  S
C1796      C1797   1.412       .  A
C1797      C1798   1.423       .  A
C1798      C1799   1.505       .  S
C1799      H1803   1.111       .  S
C1799      H1804   1.109       .  S
C1799      H1805   1.109       .  S
C1802      H1806   1.111       .  S
C1802      H1807   1.110       .  S
C1802      H1808   1.111       .  S
C1809      H1816   1.084       .  S
C1809      C1810   1.398       .  A
C1809      C1814   1.398       .  A
C1810      C1811   1.410       .  A
C1811      C1812   1.402       .  A
C1811      C1818   1.508       .  S
C1812      H1817   1.084       .  S
C1812      C1813   1.406       .  A
C1813      C1814   1.421       .  A
C1814      C1815   1.507       .  S
C1815      H1819   1.111       .  S
C1815      H1820   1.110       .  S
C1815      H1821   1.107       .  S
C1818      H1822   1.110       .  S
C1818      H1823   1.105       .  S
C1818      H1824   1.111       .  S
C1825      H1832   1.084       .  S
C1825      C1826   1.406       .  A
C1825      C1830   1.411   1_655  A
C1826      C1827   1.411       .  A
C1827      C1828   1.403   1_655  A
C1827      C1834   1.508       .  S
C1828      H1833   1.084       .  S
C1828      C1829   1.406       .  A
C1829      C1830   1.411       .  A
C1830      C1831   1.505       .  S
C1831      H1835   1.111       .  S
C1831      H1836   1.110       .  S
C1831      H1837   1.110       .  S
C1834      H1838   1.111       .  S
C1834      H1839   1.109       .  S
C1834      H1840   1.111       .  S
C1841      H1848   1.084       .  S
C1841      C1842   1.405       .  A
C1841      C1846   1.404       .  A
C1842      C1843   1.415       .  A
C1843      C1844   1.404       .  A
C1843      C1850   1.508       .  S
C1844      H1849   1.085       .  S
C1844      C1845   1.405       .  A
C1845      C1846   1.414       .  A
C1846      C1847   1.508       .  S
C1847      H1851   1.111       .  S
C1847      H1852   1.110       .  S
C1847      H1853   1.110       .  S
C1850      H1854   1.110       .  S
C1850      H1855   1.110       .  S
C1850      H1856   1.111       .  S
C1857      H1864   1.083       .  S
C1857      C1858   1.403       .  A
C1857      C1862   1.409       .  A
C1858      C1859   1.425       .  A
C1859      C1860   1.408       .  A
C1859      C1866   1.508       .  S
C1860      H1865   1.084       .  S
C1860      C1861   1.400       .  A
C1861      C1862   1.421       .  A
C1862      C1863   1.505       .  S
C1863      H1867   1.111       .  S
C1863      H1868   1.109       .  S
C1863      H1869   1.109       .  S
C1866      H1870   1.110       .  S
C1866      H1871   1.106       .  S
C1866      H1872   1.111       .  S
