geometry optimzed in LAMMPS
_audit_creation_date              2020-12-01 
_audit_creation_method            'lammps2cif' 
_symmetry_space_group_name_H-M    'P1' 
_symmetry_Int_Tables_number       1 
_symmetry_cell_setting            triclinic 
loop_ 
_symmetry_equiv_pos_as_xyz 
  x,y,z 
_cell_length_a                    45.8407326 
_cell_length_b                    45.83999557793833 
_cell_length_c                    45.85512192074151 
_cell_angle_alpha                 90.0024778496314 
_cell_angle_beta                  90.00199688161784 
_cell_angle_gamma                 90.00933136358026 
loop_ 
_atom_site_label 
_atom_site_type_symbol 
_atom_site_fract_x 
_atom_site_fract_y 
_atom_site_fract_z 
_atom_site_charge 
C1          C  0.19235154  0.80670365  0.52612075     0.05100
C2          C  0.20334166  0.79630906  0.49969023    -0.11000
C3          C  0.19294381  0.80731452  0.47326370     0.02600
C4          C  0.17129456  0.82897114  0.47316547    -0.09500
C5          C  0.16004929  0.83950636  0.49967377     0.05100
C6          C  0.17062597  0.82828937  0.52618525    -0.08900
H7          H  0.22012069  0.77960834  0.49968728     0.10700
H8          H  0.16324577  0.83752996  0.45264359     0.08300
H9          H  0.16210078  0.83638337  0.54670082     0.08100
C10         C  0.89426347  0.10600262  0.52663792     0.05100
C11         C  0.88369614  0.11651960  0.50006788    -0.11000
C12         C  0.89455757  0.10563613  0.47376776     0.02600
C13         C  0.91623424  0.08403378  0.47398033    -0.09500
C14         C  0.92699506  0.07337010  0.50061915     0.05100
C15         C  0.91594648  0.08439323  0.52699656    -0.08900
H16         H  0.86694642  0.13324547  0.49985585     0.10700
H17         H  0.92469644  0.07560462  0.45357155     0.08300
H18         H  0.92414087  0.07621732  0.54761756     0.08100
C19         C  0.89380238  0.80783878  0.52715201     0.05100
C20         C  0.91540153  0.82955556  0.52720726    -0.11000
C21         C  0.92645959  0.84022070  0.50067058     0.02600
C22         C  0.91578019  0.82909414  0.47419292    -0.09500
C23         C  0.89415964  0.80743350  0.47429904     0.05100
C24         C  0.88328255  0.79692010  0.50073202    -0.08900
H25         H  0.92359347  0.83802141  0.54771186     0.10700
H26         H  0.92422159  0.83724462  0.45366175     0.08300
H27         H  0.86658017  0.78013806  0.50074165     0.08100
C28         C  0.56996675  0.80839704  0.14983252     0.05100
C29         C  0.54364511  0.79751028  0.16064242    -0.11000
C30         C  0.51708171  0.80786958  0.14990743     0.02600
C31         C  0.51676067  0.82944164  0.12816642    -0.09500
C32         C  0.54317290  0.84056915  0.11722999     0.05100
C33         C  0.56980138  0.83000421  0.12815414    -0.08900
H34         H  0.54383699  0.78076988  0.17737639     0.10700
H35         H  0.49614656  0.83744312  0.11977810     0.08300
H36         H  0.59023726  0.83841062  0.11971907     0.08100
C37         C  0.89449340  0.43075332  0.14917276     0.05100
C38         C  0.88348810  0.45712674  0.15975246    -0.11000
C39         C  0.89383271  0.48363627  0.14884756     0.02600
C40         C  0.91535516  0.48384154  0.12708765    -0.09500
C41         C  0.92658114  0.45739533  0.11640284     0.05100
C42         C  0.91606568  0.43081525  0.12746637    -0.08900
H43         H  0.86687961  0.45702120  0.17661618     0.10700
H44         H  0.92345009  0.50441435  0.11867856     0.08300
H45         H  0.92465699  0.41034780  0.11930015     0.08100
C46         C  0.89411921  0.43029447  0.85149890     0.05100
C47         C  0.91577435  0.43045950  0.87312502    -0.11000
C48         C  0.92651986  0.45709195  0.88386022     0.02600
C49         C  0.91549275  0.48350121  0.87285502    -0.09500
C50         C  0.89383430  0.48317708  0.85121491     0.05100
C51         C  0.88324803  0.45661757  0.84068560    -0.08900
H52         H  0.92425483  0.41002644  0.88148794     0.10700
H53         H  0.92371850  0.50411637  0.88103259     0.08300
H54         H  0.86652609  0.45643116  0.82393283     0.08100
C55         C  0.57020323  0.10561868  0.85022702     0.05100
C56         C  0.57037373  0.08423031  0.87212578    -0.11000
C57         C  0.54389133  0.07355557  0.88329775     0.02600
C58         C  0.51733444  0.08447188  0.87254892    -0.09500
C59         C  0.51733289  0.10584089  0.85063533     0.05100
C60         C  0.54372898  0.11626086  0.83956633    -0.08900
H61         H  0.59092996  0.07595109  0.88038923     0.10700
H62         H  0.49684064  0.07633095  0.88110286     0.08300
H63         H  0.54366787  0.13277615  0.82260915     0.08100
C64         C  0.19229443  0.42965043  0.85006301     0.05100
C65         C  0.17062098  0.42952961  0.87169219    -0.11000
C66         C  0.16009983  0.45602119  0.88301153     0.02600
C67         C  0.17134484  0.48256198  0.87251837    -0.09500
C68         C  0.19293459  0.48252802  0.85079828     0.05100
C69         C  0.20330343  0.45610964  0.83972361    -0.08900
H70         H  0.16208009  0.40898789  0.87972488     0.10700
H71         H  0.16330821  0.50306900  0.88113229     0.08300
H72         H  0.22003359  0.45614072  0.82297754     0.08100
C73         C  0.56965482  0.80747964  0.85087141     0.05100
C74         C  0.56967835  0.82923754  0.87241429    -0.11000
C75         C  0.54311975  0.84027015  0.88305483     0.02600
C76         C  0.51664251  0.82950374  0.87196968    -0.09500
C77         C  0.51678783  0.80774145  0.85045205     0.05100
C78         C  0.54324823  0.79682202  0.84004767    -0.08900
H79         H  0.59017786  0.83749442  0.88084364     0.10700
H80         H  0.49609086  0.83792774  0.88009586     0.08300
H81         H  0.54328987  0.77996563  0.82342705     0.08100
C82         C  0.07067726  0.30805439  0.35019715     0.05100
C83         C  0.04423629  0.29718657  0.33966655    -0.11000
C84         C  0.01780895  0.30758631  0.35067273     0.02600
C85         C  0.01772068  0.32909289  0.37244169    -0.09500
C86         C  0.04421845  0.34021192  0.38311123     0.05100
C87         C  0.07075392  0.32963762  0.37192998    -0.08900
H88         H  0.04422488  0.28052656  0.32284893     0.10700
H89         H  0.99718968  0.33716561  0.38096740     0.08300
H90         H  0.09127366  0.33808880  0.38011167     0.08100
O91         O  0.33608795  0.17781295  0.27202168    -0.86300
C92         C  0.30533384  0.17946924  0.18836795     0.89700
Mg93       Mg  0.30890536  0.16650974  0.30849385     1.58100
O94         O  0.31610456  0.24853338  0.22031424    -0.86100
O95         O  0.36367720  0.21379670  0.25726968    -0.73400
C96         C  0.18911112  0.24536340  0.29284978     0.94800
O97         O  0.28653962  0.13710681  0.24328822    -0.73200
O98         O  0.19718684  0.22070284  0.30257308    -0.80700
Mg99       Mg  0.33473496  0.14826555  0.23530510     1.58000
C100        C  0.25094440  0.31136179  0.21079863     0.94700
O101        O  0.38328761  0.15276074  0.22373855    -0.79000
H102        H  0.34218561  0.27821681  0.23875159    -0.04300
C103        C  0.23238160  0.21781974  0.22291725     0.89600
O104        O  0.30092027  0.21475859  0.31942392    -0.73500
O105        O  0.32325624  0.18440385  0.20786303    -0.86200
O106        O  0.26773885  0.29551497  0.19540156    -0.79100
C107        C  0.33255767  0.24933517  0.14461798     0.94800
C108        C  0.39896339  0.16804185  0.20668006     0.94600
Mg109      Mg  0.25340319  0.26513987  0.26432541     1.58000
O110        O  0.20480710  0.26064688  0.27580404    -0.79000
O111        O  0.30163123  0.27617095  0.25637224    -0.73200
O112        O  0.34798268  0.23252053  0.16040717    -0.79100
O113        O  0.34693951  0.11014661  0.26415402    -0.80800
O114        O  0.24004359  0.18063044  0.33904678    -0.79100
C115        C  0.32085111  0.26817962  0.23812337     0.89100
O116        O  0.26479461  0.22893206  0.29173771    -0.86200
O117        O  0.25199704  0.23569310  0.22756101    -0.86300
O118        O  0.22441604  0.19968042  0.24224888    -0.73400
Mg119      Mg  0.35251763  0.22134748  0.20901234     1.58000
O120        O  0.30780599  0.25887552  0.15263084    -0.80800
H121        H  0.36572458  0.19652364  0.29796529    -0.04500
O122        O  0.27199664  0.16486169  0.27921308    -0.86000
H123        H  0.24598098  0.13504274  0.26090029    -0.04300
H124        H  0.28311214  0.25524390  0.32128816    -0.04500
C125        C  0.26729081  0.14513426  0.26148752     0.89100
C126        C  0.35569402  0.19570594  0.27664172     0.89600
C127        C  0.28258192  0.23385969  0.31135504     0.89700
H128        H  0.22233612  0.21705340  0.20159874    -0.04500
O129        O  0.28703124  0.19861151  0.18031074    -0.73500
Mg130      Mg  0.23554371  0.19200550  0.29048851     1.58000
H131        H  0.30465723  0.15804477  0.17853036    -0.04500
C132        C  0.33725087  0.10215922  0.28884023     0.94700
O133        O  0.28029103  0.15440057  0.34689421    -0.80700
C134        C  0.25548431  0.16383919  0.35484711     0.94700
O135        O  0.39087199  0.19268722  0.19694932    -0.80700
Mg136      Mg  0.27916724  0.24691490  0.19108941     1.58200
O137        O  0.32034964  0.11795496  0.30415993    -0.79000
O138        O  0.24133104  0.30338709  0.23552545    -0.80700
C139        C  0.39489512  0.98329084  0.35020383     0.05100
C140        C  0.41649680  0.98350193  0.37189649    -0.11000
C141        C  0.42736440  0.95703246  0.38290757     0.02600
C142        C  0.41654299  0.93046032  0.37210320    -0.09500
C143        C  0.39497108  0.93041773  0.35039543     0.05100
C144        C  0.38428683  0.95679637  0.33954594    -0.08900
H145        H  0.42473313  0.00407252  0.38017622     0.10700
H146        H  0.42480078  0.90998059  0.38057331     0.08300
H147        H  0.36756094  0.95670494  0.32279574     0.08100
O148        O  0.26477269  0.66459461  0.27201345    -0.86300
C149        C  0.26676379  0.69456392  0.18822033     0.89700
Mg150      Mg  0.25326518  0.69193245  0.30831739     1.58100
O151        O  0.33547732  0.68441727  0.22108813    -0.86100
O152        O  0.30056369  0.63654296  0.25783401    -0.73400
C153        C  0.33209296  0.81193096  0.29319675     0.94800
O154        O  0.22436034  0.71384966  0.24283901    -0.73200
O155        O  0.30739212  0.80382571  0.30281280    -0.80700
Mg156      Mg  0.23542643  0.66553976  0.23518819     1.58000
C157        C  0.39821159  0.74995246  0.21131843     0.94700
O158        O  0.24000578  0.61687827  0.22380828    -0.79000
H159        H  0.36506033  0.65861060  0.24005048    -0.04300
C160        C  0.30467294  0.76839486  0.22301340     0.89600
O161        O  0.30142728  0.70007674  0.31944932    -0.73500
O162        O  0.27162551  0.67681092  0.20787806    -0.86200
O163        O  0.38249056  0.73291065  0.19606107    -0.79100
C164        C  0.33688456  0.66766107  0.14537473     0.94800
C165        C  0.25537584  0.60121708  0.20680223     0.94600
Mg166      Mg  0.35184800  0.74768277  0.26466624     1.58000
O167        O  0.34733606  0.79634623  0.27601120    -0.79000
O168        O  0.36293330  0.69940767  0.25708820    -0.73200
O169        O  0.32026651  0.65212132  0.16124032    -0.79100
O170        O  0.19727656  0.65337798  0.26397100    -0.80800
O171        O  0.26732535  0.76080575  0.33898829    -0.79100
C172        C  0.35501446  0.67992445  0.23908123     0.89100
O173        O  0.31562922  0.73632634  0.29194972    -0.86200
O174        O  0.32241767  0.74870808  0.22784477    -0.86300
O175        O  0.28653187  0.77658777  0.24225103    -0.73400
Mg176      Mg  0.30862032  0.64770550  0.20964857     1.58000
O177        O  0.34623832  0.69251246  0.15330352    -0.80800
H178        H  0.28271975  0.63480590  0.29830662    -0.04500
O179        O  0.25164022  0.72885862  0.27899414    -0.86000
H180        H  0.22211672  0.75463952  0.25989151    -0.04300
H181        H  0.34182805  0.71804966  0.32160994    -0.04500
C182        C  0.23217994  0.73333445  0.26090208     0.89100
C183        C  0.28233366  0.64478963  0.27694951     0.89600
C184        C  0.32050110  0.71852003  0.31155431     0.89700
H185        H  0.30405721  0.77834028  0.20164391    -0.04500
O186        O  0.28580082  0.71306499  0.18036886    -0.73500
Mg187      Mg  0.27869450  0.76545077  0.29047952     1.58000
H188        H  0.24546460  0.69495540  0.17809960    -0.04500
C189        C  0.18916973  0.66311426  0.28859492     0.94700
O190        O  0.24101011  0.72056994  0.34665018    -0.80700
C191        C  0.25052931  0.74531079  0.35472392     0.94700
O192        O  0.28013819  0.60926773  0.19731995    -0.80700
Mg193      Mg  0.33395014  0.72125239  0.19158876     1.58200
O194        O  0.20477806  0.68025582  0.30385010    -0.79000
O195        O  0.39011964  0.75976159  0.23592445    -0.80700
O196        O  0.77182677  0.17817870  0.29212738    -0.86300
C197        C  0.85569206  0.18016076  0.26173087     0.89700
Mg198      Mg  0.73539633  0.16666586  0.26483975     1.58100
O199        O  0.82320912  0.24905872  0.27228265    -0.86100
O200        O  0.78643760  0.21397086  0.32000646    -0.73400
C201        C  0.75054893  0.24563334  0.14506794     0.94800
O202        O  0.80078559  0.13761353  0.24266816    -0.73200
O203        O  0.74100228  0.22091878  0.15319455    -0.80700
Mg204      Mg  0.80867588  0.14874254  0.29087965     1.58000
C205        C  0.83311648  0.31159221  0.20649352     0.94700
O206        O  0.82036627  0.15308484  0.33940864    -0.79000
H207        H  0.80456119  0.27881763  0.29812342    -0.04300
C208        C  0.82089282  0.21815429  0.18844874     0.89600
O209        O  0.72423013  0.21486861  0.25668109    -0.73500
O210        O  0.83602507  0.18500727  0.27947449    -0.86200
O211        O  0.84828592  0.29594986  0.22366345    -0.79100
C212        C  0.89883293  0.25045099  0.28886289     0.94800
C213        C  0.83761287  0.16824513  0.35499944     0.94600
Mg214      Mg  0.77939948  0.26547243  0.20919372     1.58000
O215        O  0.76774215  0.26093279  0.16060311    -0.79000
O216        O  0.78727395  0.27666734  0.25743218    -0.73200
O217        O  0.88314555  0.23354649  0.30429206    -0.79100
O218        O  0.77986668  0.11058084  0.30322638    -0.80800
O219        O  0.70472051  0.18061593  0.19592611    -0.79100
C220        C  0.80534763  0.26870446  0.27683754     0.89100
O221        O  0.75194293  0.22922650  0.22066028    -0.86200
O222        O  0.81617792  0.23599530  0.20806486    -0.86300
O223        O  0.80156657  0.20004117  0.18038554    -0.73400
Mg224      Mg  0.83466854  0.22187824  0.30878967     1.58000
O225        O  0.89082419  0.25983407  0.26406275    -0.80800
H226        H  0.74579087  0.19650992  0.32191320    -0.04500
O227        O  0.76472587  0.16512461  0.22797188    -0.86000
H228        H  0.78336973  0.13545152  0.20203942    -0.04300
H229        H  0.72218945  0.25536363  0.23889727    -0.04500
C230        C  0.78261762  0.14553019  0.22334230     0.89100
C231        C  0.76711808  0.19588445  0.31186671     0.89600
C232        C  0.73225560  0.23404157  0.23839452     0.89700
H233        H  0.84224360  0.21742087  0.17846003    -0.04500
O234        O  0.86370237  0.19929836  0.24341364    -0.73500
Mg235      Mg  0.75330366  0.19222876  0.19148877     1.58000
H236        H  0.86572531  0.15882425  0.26122441    -0.04500
C237        C  0.75513409  0.10254564  0.29367126     0.94700
O238        O  0.69713471  0.15418582  0.23608019    -0.80700
C239        C  0.68908827  0.16358395  0.21128901     0.94700
O240        O  0.84715022  0.19301679  0.34701188    -0.80700
Mg241      Mg  0.85256986  0.24747301  0.23536371     1.58200
O242        O  0.73984583  0.11818654  0.27659723    -0.79000
O243        O  0.80839990  0.30358990  0.19684161    -0.80700
C244        C  0.69218938  0.98373772  0.35005439     0.05100
C245        C  0.70311073  0.95727992  0.33960850    -0.11000
C246        C  0.69260726  0.93085530  0.35056204     0.02600
C247        C  0.67094763  0.93081613  0.37219590    -0.09500
C248        C  0.65985725  0.95734967  0.38282343     0.05100
C249        C  0.67048267  0.98384543  0.37163725    -0.08900
H250        H  0.71993633  0.95725558  0.32295971     0.10700
H251        H  0.66284179  0.91030779  0.38074841     0.08300
H252        H  0.66206463  0.00438292  0.37980630     0.08100
O253        O  0.82301132  0.68503896  0.29241032    -0.86300
C254        C  0.82032645  0.76865598  0.26157763     0.89700
Mg255      Mg  0.83440630  0.64872291  0.26514030     1.58100
O256        O  0.75155052  0.73595778  0.27260240    -0.86100
O257        O  0.78699990  0.69937680  0.32013446    -0.73400
C258        C  0.75492641  0.66352722  0.14553253     0.94800
O259        O  0.86354175  0.71398669  0.24274601    -0.73200
O260        O  0.77971315  0.65411700  0.15359466    -0.80700
Mg261      Mg  0.85236084  0.72191903  0.29094309     1.58000
C262        C  0.68851702  0.74550866  0.20691526     0.94700
O263        O  0.84797090  0.73358729  0.33938898    -0.79000
H264        H  0.72198824  0.71729038  0.29866224    -0.04300
C265        C  0.78183944  0.73395118  0.18867830     0.89600
O266        O  0.78618907  0.63754807  0.25722193    -0.73500
O267        O  0.81581508  0.74905398  0.27949680    -0.86200
O268        O  0.70397941  0.76076505  0.22421257    -0.79100
C269        C  0.75004171  0.81162027  0.28936829     0.94800
C270        C  0.83258876  0.75049817  0.35510409     0.94600
Mg271      Mg  0.73499774  0.69211828  0.20970847     1.58000
O272        O  0.73953025  0.68053900  0.16115090    -0.79000
O273        O  0.72390997  0.69995570  0.25797736    -0.73200
O274        O  0.76728923  0.79604316  0.30452682    -0.79100
O275        O  0.89063384  0.69313541  0.30339010    -0.80800
O276        O  0.82041083  0.61817321  0.19625131    -0.79100
C277        C  0.73196758  0.71806330  0.27731348     0.89100
O278        O  0.77150693  0.66500744  0.22112867    -0.86200
O279        O  0.76411339  0.72912101  0.20836612    -0.86300
O280        O  0.80016162  0.71480351  0.18067305    -0.73400
Mg281      Mg  0.77895324  0.74753422  0.30892766     1.58000
O282        O  0.74028392  0.80351125  0.26473482    -0.80800
H283        H  0.80480647  0.65890153  0.32217988    -0.04500
O284        O  0.83567186  0.67813904  0.22826137    -0.86000
H285        H  0.86543371  0.69642234  0.20216198    -0.04300
H286        H  0.74557748  0.63530878  0.23974926    -0.04500
C287        C  0.85540636  0.69583995  0.22349419     0.89100
C288        C  0.80529941  0.68022352  0.31211554     0.89600
C289        C  0.76687567  0.64541685  0.23902037     0.89700
H290        H  0.78230430  0.75526544  0.17859445    -0.04500
O291        O  0.80086693  0.77658464  0.24354668    -0.73500
Mg292      Mg  0.80843125  0.66661559  0.19184027     1.58000
H293        H  0.84161834  0.77876526  0.26070709    -0.04500
C294        C  0.89858088  0.66830968  0.29397721     0.94700
O295        O  0.84679693  0.61052817  0.23641926    -0.80700
C296        C  0.83740133  0.60251992  0.21162545     0.94700
O297        O  0.80778339  0.75992726  0.34712880    -0.80700
Mg298      Mg  0.75261223  0.76536479  0.23578297     1.58200
O299        O  0.88292340  0.65305557  0.27687948    -0.79000
O300        O  0.69669625  0.72082170  0.19734330    -0.80700
C301        C  0.07030160  0.60628043  0.35083689     0.05100
C302        C  0.07063005  0.58457259  0.37241628    -0.11000
C303        C  0.04423078  0.57354595  0.38342873     0.02600
C304        C  0.01759792  0.58428564  0.37270466    -0.09500
C305        C  0.01741886  0.60599745  0.35113726     0.05100
C306        C  0.04374212  0.61691381  0.34034928    -0.08900
H307        H  0.09124656  0.57631307  0.38054967     0.10700
H308        H  0.99716954  0.57582793  0.38110611     0.08300
H309        H  0.04355678  0.63371121  0.32367344     0.08100
C310        C  0.39441011  0.30724292  0.02604814     0.05100
C311        C  0.41587158  0.32910018  0.02610294    -0.11000
C312        C  0.42652448  0.34018418  0.99956738     0.02600
C313        C  0.41551984  0.32935938  0.97307938    -0.09500
C314        C  0.39406833  0.30751268  0.97319094     0.05100
C315        C  0.38365951  0.29655683  0.99963015    -0.08900
H316        H  0.42424199  0.33738196  0.04660994     0.10700
H317        H  0.42365513  0.33780594  0.95254516     0.08300
H318        H  0.36709717  0.27963565  0.99964623     0.08100
O319        O  0.31557741  0.17726230  0.70777553    -0.86300
C320        C  0.23174021  0.17939261  0.73844599     0.89700
Mg321      Mg  0.35219049  0.16590637  0.73485216     1.58100
O322        O  0.26422427  0.24821332  0.72747090    -0.86100
O323        O  0.30080713  0.21300798  0.67991576    -0.73400
C324        C  0.33702436  0.24504720  0.85450932     0.94800
O325        O  0.28672297  0.13692650  0.75745726    -0.73200
O326        O  0.34668503  0.22034180  0.84649929    -0.80700
Mg327      Mg  0.27873603  0.14783248  0.70922567     1.58000
C328        C  0.25499682  0.31113208  0.79285105     0.94700
O329        O  0.26713482  0.15218991  0.66065628    -0.79000
H330        H  0.28289124  0.27772067  0.70136050    -0.04300
C331        C  0.26688098  0.21766941  0.81134334     0.89600
O332        O  0.36331974  0.21411854  0.74276734    -0.73500
O333        O  0.25132743  0.18412073  0.72057149    -0.86200
O334        O  0.23967614  0.29545775  0.77583098    -0.79100
C335        C  0.18850248  0.24972731  0.71108643     0.94800
C336        C  0.25000959  0.16741245  0.64498916     0.94600
Mg337      Mg  0.30841936  0.26476252  0.79022810     1.58000
O338        O  0.32001004  0.26032890  0.83878277    -0.79000
O339        O  0.30041586  0.27570426  0.74195653    -0.73200
O340        O  0.20404588  0.23260582  0.69573406    -0.79100
O341        O  0.30754775  0.10955498  0.69703690    -0.80800
O342        O  0.38294740  0.17995999  0.80373038    -0.79100
C343        C  0.28216910  0.26773959  0.72271005     0.89100
O344        O  0.33575319  0.22846120  0.77889351    -0.86200
O345        O  0.27155556  0.23541053  0.79162454    -0.86300
O346        O  0.28619161  0.19954347  0.81940873    -0.73400
Mg347      Mg  0.25261310  0.22093246  0.69117830     1.58000
O348        O  0.19667779  0.25924146  0.73579442    -0.80800
H349        H  0.34147118  0.19562802  0.67788881    -0.04500
O350        O  0.32297758  0.16437080  0.77187573    -0.86000
H351        H  0.30431256  0.13488912  0.79801319    -0.04300
H352        H  0.36540735  0.25461914  0.76051682    -0.04500
C353        C  0.30502447  0.14485661  0.77665716     0.89100
C354        C  0.32017974  0.19496333  0.68800639     0.89600
C355        C  0.35537228  0.23328081  0.76108577     0.89700
H356        H  0.24557128  0.21703234  0.82142485    -0.04500
O357        O  0.22380923  0.19865934  0.75667195    -0.73500
Mg358      Mg  0.33441800  0.19159924  0.80824008     1.58000
H359        H  0.22169155  0.15806391  0.73913284    -0.04500
C360        C  0.33238786  0.10159312  0.70638609     0.94700
O361        O  0.39068445  0.15374904  0.76344958    -0.80700
C362        C  0.39869918  0.16314643  0.78825855     0.94700
O363        O  0.24026324  0.19207014  0.65304313    -0.80700
Mg364      Mg  0.23505767  0.24689126  0.76445341     1.58200
O365        O  0.34784841  0.11737249  0.72318693    -0.79000
O366        O  0.27969062  0.30305343  0.80247420    -0.80700
C367        C  0.39402405  0.98240075  0.64920990     0.05100
C368        C  0.38302913  0.95595624  0.65960072    -0.11000
C369        C  0.39344122  0.92952340  0.64860237     0.02600
C370        C  0.41507906  0.92944955  0.62693986    -0.09500
C371        C  0.42632583  0.95596782  0.61640583     0.05100
C372        C  0.41574052  0.98248317  0.62761693    -0.08900
H373        H  0.36629222  0.95594569  0.67634035     0.10700
H374        H  0.42317818  0.90892584  0.61842263     0.08300
H375        H  0.42429948  0.00301030  0.61956878     0.08100
O376        O  0.26431121  0.68408110  0.70784303    -0.86300
C377        C  0.26632022  0.76762680  0.73870631     0.89700
Mg378      Mg  0.25293171  0.64780034  0.73523950     1.58100
O379        O  0.33529273  0.73542129  0.72808027    -0.86100
O380        O  0.30044045  0.69863079  0.68035578    -0.73400
C381        C  0.33186074  0.66320053  0.85518501     0.94800
O382        O  0.22361956  0.71298456  0.75726562    -0.73200
O383        O  0.30707857  0.65375254  0.84713428    -0.80700
Mg384      Mg  0.23489383  0.72087961  0.70907822     1.58000
C385        C  0.39813723  0.74517260  0.79348480     0.94700
O386        O  0.23948846  0.73249050  0.66049315    -0.79000
H387        H  0.36512431  0.71707131  0.70211285    -0.04300
C388        C  0.30480077  0.73323242  0.81188817     0.89600
O389        O  0.30118567  0.63688337  0.74324072    -0.73500
O390        O  0.27113786  0.74817241  0.72070407    -0.86200
O391        O  0.38239713  0.76039722  0.77643770    -0.79100
C392        C  0.33634588  0.81114631  0.71156131     0.94800
C393        C  0.25484321  0.74959955  0.64493211     0.94600
Mg394      Mg  0.35194739  0.69162175  0.79093210     1.58000
O395        O  0.34735857  0.68001893  0.83945631    -0.79000
O396        O  0.36312024  0.69957817  0.74272118    -0.73200
O397        O  0.31939873  0.79542534  0.69621572    -0.79100
O398        O  0.19676893  0.69203554  0.69675230    -0.80800
O399        O  0.26684780  0.61737191  0.80431917    -0.79100
C400        C  0.35503660  0.71769875  0.72341466     0.89100
O401        O  0.31560989  0.66432409  0.77948910    -0.86200
O402        O  0.32256598  0.72842077  0.79223580    -0.86300
O403        O  0.28646802  0.71407904  0.81983228    -0.73400
Mg404      Mg  0.30814294  0.74687185  0.69157272     1.58000
O405        O  0.34596330  0.80309741  0.73625979    -0.80800
H406        H  0.28294930  0.65801003  0.67827841    -0.04500
O407        O  0.25149642  0.67725188  0.77204303    -0.86000
H408        H  0.22160831  0.69562217  0.79792840    -0.04300
H409        H  0.34175278  0.63483990  0.76083226    -0.04500
C410        C  0.23172169  0.69495106  0.77664044     0.89100
C411        C  0.28222327  0.67935090  0.68829181     0.89600
C412        C  0.32039236  0.64481114  0.76154008     0.89700
H413        H  0.30427843  0.75455546  0.82195162    -0.04500
O414        O  0.28553298  0.77557390  0.75699381    -0.73500
Mg415      Mg  0.27853615  0.66588953  0.80865404     1.58000
H416        H  0.24493573  0.77754202  0.73945614    -0.04500
C417        C  0.18867661  0.66740792  0.70653511     0.94700
O418        O  0.24071339  0.60951912  0.76402697    -0.80700
C419        C  0.25005585  0.60157665  0.78886830     0.94700
O420        O  0.27952819  0.75917334  0.65313205    -0.80700
Mg421      Mg  0.33382782  0.76474813  0.76493930     1.58200
O422        O  0.20432871  0.65218580  0.72367511    -0.79000
O423        O  0.39015725  0.72047206  0.80319415    -0.80700
C424        C  0.06942451  0.60622559  0.64924238     0.05100
C425        C  0.04296651  0.61694288  0.65985528    -0.11000
C426        C  0.01655890  0.60629713  0.64902703     0.02600
C427        C  0.01652953  0.58466311  0.62736106    -0.09500
C428        C  0.04308489  0.57373666  0.61660036     0.05100
C429        C  0.06956715  0.58460358  0.62757897    -0.08900
H430        H  0.04292674  0.63363683  0.67663931     0.10700
H431        H  0.99602631  0.57634787  0.61899802     0.08300
H432        H  0.09011774  0.57627286  0.61935564     0.08100
C433        C  0.06969476  0.30698718  0.64877747     0.05100
C434        C  0.06975140  0.32869165  0.62718828    -0.09400
C435        C  0.04323317  0.33993133  0.61666407     0.02600
C436        C  0.01671616  0.32934620  0.62786859    -0.09500
C437        C  0.01681928  0.30756252  0.64939028     0.05100
C438        C  0.04326373  0.29649347  0.65969737    -0.08900
H439        H  0.09027071  0.33683913  0.61870414     0.10700
H440        H  0.99618735  0.33794220  0.61986631     0.08300
H441        H  0.04327560  0.27968536  0.67636509     0.08100
O442        O  0.77151995  0.24874457  0.77895243    -0.86300
C443        C  0.85515111  0.21829784  0.77704948     0.89700
Mg444      Mg  0.73525474  0.22130809  0.79033114     1.58100
O445        O  0.82262239  0.22863998  0.70820298    -0.86100
O446        O  0.78591896  0.27651868  0.74300443    -0.73400
C447        C  0.75041847  0.10108491  0.71187437     0.94800
O448        O  0.80053316  0.19939069  0.81960064    -0.73200
O449        O  0.74095568  0.10919593  0.73661952    -0.80700
Mg450      Mg  0.80828977  0.24762477  0.80841910     1.58000
C451        C  0.83235757  0.16296106  0.64561080     0.94700
O452        O  0.81981494  0.29622974  0.80387695    -0.79000
H453        H  0.80374550  0.25440782  0.67852723    -0.04300
C454        C  0.82064571  0.14463205  0.73888166     0.89600
O455        O  0.72428073  0.21315817  0.74213491    -0.73500
O456        O  0.83558258  0.23616247  0.77220382    -0.86200
O457        O  0.84755198  0.18016509  0.66121815    -0.79100
C458        C  0.89836311  0.24526401  0.70700940     0.94800
C459        C  0.83696826  0.31180015  0.78858203     0.94600
Mg460      Mg  0.77894687  0.16533604  0.69183011     1.58000
O461        O  0.76743851  0.11670420  0.69647250    -0.79000
O462        O  0.78667590  0.21361332  0.68067434    -0.73200
O463        O  0.88264675  0.26067892  0.72388668    -0.79100
O464        O  0.77946275  0.25982570  0.84659950    -0.80800
O465        O  0.70483614  0.15220055  0.77653715    -0.79100
C466        C  0.80467109  0.23311320  0.68861805     0.89100
O467        O  0.75163383  0.17675242  0.72798498    -0.86200
O468        O  0.81575917  0.16434800  0.72120514    -0.86300
O469        O  0.80148978  0.13650447  0.75712815    -0.73400
Mg470      Mg  0.83412832  0.26527889  0.73522242     1.58000
O471        O  0.89030178  0.22052786  0.69747078    -0.80800
H472        H  0.74534867  0.27841786  0.76061755    -0.04500
O473        O  0.76470975  0.18446031  0.79189652    -0.86000
H474        H  0.78334065  0.15864794  0.82168124    -0.04300
H475        H  0.72210934  0.19519539  0.70174586    -0.04500
C476        C  0.78252987  0.17994212  0.81158063     0.89100
C477        C  0.76670178  0.26842312  0.76120488     0.89600
C478        C  0.73211823  0.19466284  0.72308937     0.89700
H479        H  0.84200021  0.13463431  0.73936351    -0.04500
O480        O  0.86306550  0.19990561  0.75793361    -0.73500
Mg481      Mg  0.75327993  0.14771533  0.76504407     1.58000
H482        H  0.86517535  0.21774402  0.79838413    -0.04500
C483        C  0.75481918  0.25002506  0.85462620     0.94700
O484        O  0.69693622  0.19258831  0.80250993    -0.80700
C485        C  0.68898717  0.16774662  0.79315922     0.94700
O486        O  0.84649129  0.30369151  0.76385422    -0.80700
Mg487      Mg  0.85201843  0.19178256  0.70974165     1.58200
O488        O  0.73959968  0.23296451  0.83888290    -0.79000
O489        O  0.80777377  0.15310455  0.65373009    -0.80700
C490        C  0.69286875  0.98285990  0.64893680     0.05100
C491        C  0.67131018  0.98288454  0.62721255    -0.11000
C492        C  0.66013560  0.95634667  0.61667472     0.02600
C493        C  0.67071297  0.92984430  0.62792017    -0.09500
C494        C  0.69237447  0.92999313  0.64956751     0.05100
C495        C  0.70330421  0.95645818  0.65995929    -0.08900
H496        H  0.66319452  0.00338994  0.61866718     0.10700
H497        H  0.66218833  0.90929943  0.61987521     0.08300
H498        H  0.71999158  0.95650965  0.67674922     0.08100
O499        O  0.75134809  0.68459140  0.77967377    -0.86300
C500        C  0.78178822  0.76832213  0.77724175     0.89700
Mg501      Mg  0.77873307  0.64835287  0.79108939     1.58100
O502        O  0.77111446  0.73575841  0.70842572    -0.86100
O503        O  0.72371050  0.69887877  0.74355454    -0.73400
C504        C  0.89838051  0.66376070  0.71191637     0.94800
O505        O  0.80089959  0.71383262  0.81999919    -0.73200
O506        O  0.89038988  0.65420107  0.73665914    -0.80700
Mg507      Mg  0.75263206  0.72151309  0.80894027     1.58000
C508        C  0.83649525  0.74531772  0.64563312     0.94700
O509        O  0.70404535  0.73289825  0.80444769    -0.79000
H510        H  0.74512173  0.71709448  0.67880591    -0.04300
C511        C  0.85497038  0.73376422  0.73894291     0.89600
O512        O  0.78661431  0.63721748  0.74289495    -0.73500
O513        O  0.76394618  0.74869565  0.77252046    -0.86200
O514        O  0.81937933  0.76059489  0.66124888    -0.79100
C515        C  0.75450687  0.81147685  0.70723327     0.94800
C516        C  0.68830863  0.74977052  0.78902389     0.94600
Mg517      Mg  0.83403736  0.69197603  0.69201352     1.58000
O518        O  0.88262098  0.68066504  0.69655851    -0.79000
O519        O  0.78577528  0.69969827  0.68088786    -0.73200
O520        O  0.73909709  0.79569010  0.72407196    -0.79100
O521        O  0.74055629  0.69280763  0.84731858    -0.80800
O522        O  0.84767173  0.61790768  0.77691818    -0.79100
C523        C  0.76645033  0.71785884  0.68884157     0.89100
O524        O  0.82272672  0.66477202  0.72839013    -0.86200
O525        O  0.83526061  0.72887134  0.72125453    -0.86300
O526        O  0.86308826  0.71463472  0.75722373    -0.73400
Mg527      Mg  0.73468407  0.74712564  0.73560450     1.58000
O528        O  0.77923843  0.80345671  0.69765832    -0.80800
H529        H  0.72180796  0.65834139  0.76123615    -0.04500
O530        O  0.81556009  0.67781302  0.79241755    -0.86000
H531        H  0.84158477  0.69650717  0.82198740    -0.04300
H532        H  0.80422934  0.63508866  0.70235368    -0.04500
C533        C  0.82023687  0.69571195  0.81199628     0.89100
C534        C  0.73175362  0.67972031  0.76184232     0.89600
C535        C  0.80487989  0.64514942  0.72366894     0.89700
H536        H  0.86496296  0.75512426  0.73941883    -0.04500
O537        O  0.80004463  0.77626896  0.75801142    -0.73500
Mg538      Mg  0.85203494  0.66641384  0.76528329     1.58000
H539        H  0.78243664  0.77838041  0.79855798    -0.04500
C540        C  0.75026876  0.66813390  0.85537021     0.94700
O541        O  0.80749775  0.61010094  0.80325907    -0.80700
C542        C  0.83225355  0.60210954  0.79372964     0.94700
O543        O  0.69632790  0.75925992  0.76426188    -0.80700
Mg544      Mg  0.80794662  0.76514893  0.70981199     1.58200
O545        O  0.76726204  0.65284005  0.83964059    -0.79000
O546        O  0.84621174  0.72067644  0.65375074    -0.80700
C547        C  0.39385270  0.60559101  0.02653488     0.05100
C548        C  0.41580322  0.58424921  0.02668713    -0.11000
C549        C  0.42695535  0.57357633  0.00020228     0.02600
C550        C  0.41614124  0.58445075  0.97366393    -0.09500
C551        C  0.39418476  0.60577581  0.97368722     0.05100
C552        C  0.38313378  0.61619477  0.00007908    -0.08900
H553        H  0.42411279  0.57599589  0.04722984     0.10700
H554        H  0.42467602  0.57631151  0.95316762     0.08300
H555        H  0.36614170  0.63267812  0.00002852     0.08100
C556        C  0.69325650  0.30810256  0.02642387     0.05100
C557        C  0.67157849  0.32972133  0.02630061    -0.11000
C558        C  0.66062877  0.34031953  0.99969787     0.02600
C559        C  0.67152858  0.32920143  0.97327793    -0.09500
C560        C  0.69325004  0.30760807  0.97355547     0.05100
C561        C  0.70401202  0.29721422  0.00008839    -0.08900
H562        H  0.66319169  0.33813616  0.04674585     0.10700
H563        H  0.66313947  0.33724409  0.95268503     0.08300
H564        H  0.72075220  0.28047620  0.00024492     0.08100
C565        C  0.69221295  0.60644271  0.02695930     0.05100
C566        C  0.70319544  0.61700572  0.00058734    -0.11000
C567        C  0.69274267  0.60619545  0.97409685     0.02600
C568        C  0.67104062  0.58458631  0.97389819    -0.09500
C569        C  0.65987175  0.57385654  0.00035863     0.05100
C570        C  0.67047830  0.58488361  0.02692033    -0.08900
H571        H  0.72002497  0.63365923  0.00068199     0.10700
H572        H  0.66295012  0.57615644  0.95333822     0.08300
H573        H  0.66199494  0.57663575  0.04739504     0.08100
C574        C  0.57047984  0.10628781  0.14867273     0.05100
C575        C  0.54408071  0.11686245  0.15959013    -0.11000
C576        C  0.51759858  0.10607638  0.14906857     0.02600
C577        C  0.51742684  0.08447397  0.12737528    -0.09500
C578        C  0.54391214  0.07374071  0.11626894     0.05100
C579        C  0.57046790  0.08473068  0.12694641    -0.08900
H580        H  0.54414671  0.13352721  0.17640090     0.10700
H581        H  0.49687134  0.07607680  0.11922163     0.08300
H582        H  0.59095931  0.07648441  0.11849321     0.08100
C583        C  0.19328472  0.43004682  0.14900140     0.05100
C584        C  0.17153206  0.42979772  0.12744718    -0.11000
C585        C  0.16028739  0.45624946  0.11674675     0.02600
C586        C  0.17088009  0.48283789  0.12774476    -0.09500
C587        C  0.19267723  0.48291098  0.14922835     0.05100
C588        C  0.20374682  0.45656010  0.15974153    -0.08900
H589        H  0.16343965  0.40921321  0.11906497     0.10700
H590        H  0.16232026  0.50330622  0.11955092     0.08300
H591        H  0.22061317  0.45668896  0.17635169     0.08100
C592        C  0.19297480  0.10591978  0.52579424     0.05100
C593        C  0.17129900  0.08430042  0.52592313    -0.11000
C594        C  0.16021904  0.07354330  0.49944500     0.02600
C595        C  0.17088116  0.08459879  0.47290319    -0.09500
C596        C  0.19258602  0.10621007  0.47294538     0.05100
C597        C  0.20352071  0.11672945  0.49935243    -0.08900
H598        H  0.16313881  0.07589067  0.54646265     0.10700
H599        H  0.16243648  0.07637789  0.45240181     0.08300
H600        H  0.22032560  0.13340999  0.49932515     0.08100
N601        N  0.04343212  0.91161523  0.50222005    -0.34600
N602        N  0.99819771  0.95672968  0.49957324    -0.55200
N603        N  0.04372658  0.00162693  0.49747059    -0.34600
N604        N  0.08897310  0.95651383  0.50023700    -0.55200
C605        C  0.01950189  0.89438633  0.49984467     0.29000
C606        C  0.06726929  0.89424837  0.49996667     0.29000
C607        C  0.01989452  0.01890489  0.50037689     0.29000
C608        C  0.06763618  0.01880753  0.50034013     0.29000
C609        C  0.98054918  0.93308245  0.49985424     0.37600
C610        C  0.98071785  0.98047921  0.49876319     0.37600
C611        C  0.10646587  0.93274496  0.50058834     0.37600
C612        C  0.10660174  0.98017108  0.49933737     0.37600
C613        C  0.02830279  0.86557653  0.49680153    -0.19900
C614        C  0.05829300  0.86549003  0.49686604    -0.19900
C615        C  0.02884188  0.04756356  0.50433191    -0.19900
C616        C  0.05882232  0.04750574  0.50428744    -0.19900
C617        C  0.95160850  0.94190225  0.49909477    -0.20900
C618        C  0.95171541  0.97183213  0.49839171    -0.20900
C619        C  0.13546120  0.94140992  0.50002631    -0.20900
C620        C  0.13554522  0.97134928  0.49921380    -0.20900
C621        C  0.98990722  0.90360848  0.50024921    -0.16300
C622        C  0.09692924  0.90329876  0.50050081    -0.16300
C623        C  0.09722942  0.00965249  0.49946129    -0.16300
C624        C  0.99025626  0.00988220  0.49950473    -0.16300
H625        H  0.01456055  0.84651929  0.49443761     0.16600
H626        H  0.07191883  0.84634549  0.49458110     0.16600
H627        H  0.01520104  0.06661662  0.50722039     0.16600
H628        H  0.07255137  0.06650134  0.50716625     0.16600
H629        H  0.93236134  0.92822258  0.49900368     0.14900
H630        H  0.93256287  0.98563062  0.49791899     0.14900
H631        H  0.15462126  0.92761509  0.49997746     0.14900
H632        H  0.15477899  0.98503799  0.49869426     0.14900
H633        H  0.04348107  0.93362914  0.50703803     0.28200
H634        H  0.04368685  0.97982309  0.49169744     0.28200
N635        N  0.54679881  0.95676073  0.04485409    -0.34600
N636        N  0.54312180  0.91139746  0.99997302    -0.55200
N637        N  0.54047918  0.95680706  0.95499552    -0.34600
N638        N  0.54413815  0.00214269  0.99987847    -0.55200
C639        C  0.54389198  0.93293191  0.06214998     0.29000
C640        C  0.54424972  0.98067235  0.06209226     0.29000
C641        C  0.54282176  0.93290801  0.93772084     0.29000
C642        C  0.54327096  0.98064798  0.93769809     0.29000
C643        C  0.54404228  0.89382602  0.02365800     0.37600
C644        C  0.54228188  0.89383256  0.97628200     0.37600
C645        C  0.54510801  0.01971620  0.02354482     0.37600
C646        C  0.54343711  0.01972290  0.97620600     0.37600
C647        C  0.54038795  0.94188086  0.09085323    -0.19900
C648        C  0.54060349  0.97185291  0.09081472    -0.19900
C649        C  0.54625564  0.94175595  0.90897323    -0.19900
C650        C  0.54653781  0.97172983  0.90896163    -0.19900
C651        C  0.54377058  0.86485305  0.01492763    -0.20900
C652        C  0.54264066  0.86485562  0.98501160    -0.20900
C653        C  0.54508823  0.04869443  0.01481656    -0.20900
C654        C  0.54402053  0.04869828  0.98491844    -0.20900
C655        C  0.54415138  0.90329139  0.05309251    -0.16300
C656        C  0.54493369  0.01028054  0.05296472    -0.16300
C657        C  0.54312271  0.01027242  0.94679233    -0.16300
C658        C  0.54219092  0.90329134  0.94684151    -0.16300
H659        H  0.53755580  0.92824961  0.10991667     0.16600
H660        H  0.53797107  0.98557769  0.10984053     0.16600
H661        H  0.54871581  0.92805131  0.88990983     0.16600
H662        H  0.54925263  0.98538348  0.88989638     0.16600
H663        H  0.54421046  0.84565657  0.02866386     0.14900
H664        H  0.54231972  0.84565690  0.97127318     0.14900
H665        H  0.54558193  0.06789788  0.02854262     0.14900
H666        H  0.54380541  0.06790090  0.97118560     0.14900
H667        H  0.55216154  0.95669461  0.02295310     0.28200
H668        H  0.53534911  0.95685524  0.97694677     0.28200
N669        N  0.04368637  0.45985682  0.04499091    -0.34600
N670        N  0.99826373  0.45676463  0.00019210    -0.55200
N671        N  0.04349780  0.45338760  0.95514429    -0.34600
N672        N  0.08893669  0.45639008  0.99992943    -0.55200
C673        C  0.01984255  0.45731065  0.06232330     0.29000
C674        C  0.06757121  0.45702744  0.06221168     0.29000
C675        C  0.01960401  0.45678039  0.93802270     0.29000
C676        C  0.06733114  0.45645005  0.93786915     0.29000
C677        C  0.98072271  0.45756063  0.02389109     0.37600
C678        C  0.98063190  0.45571899  0.97657153     0.37600
C679        C  0.10656109  0.45689174  0.02358898     0.37600
C680        C  0.10646120  0.45500993  0.97622959     0.37600
C681        C  0.02875558  0.45368343  0.09101713    -0.19900
C682        C  0.05872722  0.45350779  0.09094964    -0.19900
C683        C  0.02842168  0.46120931  0.90941206    -0.19900
C684        C  0.05839213  0.46099694  0.90931454    -0.19900
C685        C  0.95172839  0.45697665  0.01523856    -0.20900
C686        C  0.95167232  0.45577282  0.98535080    -0.20900
C687        C  0.13550745  0.45586147  0.01482067    -0.20900
C688        C  0.13544202  0.45462860  0.98491614    -0.20900
C689        C  0.99021581  0.45789466  0.05328346    -0.16300
C690        C  0.09717127  0.45722803  0.05304450    -0.16300
C691        C  0.09697475  0.45531256  0.94681559    -0.16300
C692        C  0.99000755  0.45604082  0.94714481    -0.16300
H693        H  0.01509324  0.45097095  0.11007681     0.16600
H694        H  0.07242876  0.45063795  0.10995785     0.16600
H695        H  0.01469646  0.46463166  0.89051266     0.16600
H696        H  0.07203982  0.46423174  0.89032721     0.16600
H697        H  0.93255074  0.45725204  0.02900540     0.14900
H698        H  0.93244345  0.45527133  0.97166170     0.14900
H699        H  0.15472913  0.45579543  0.02852875     0.14900
H700        H  0.15460550  0.45375967  0.97115530     0.14900
H701        H  0.04367880  0.46511803  0.02305480     0.28200
H702        H  0.04351521  0.44720235  0.97685779     0.28200
N703        N  0.58846415  0.45671124  0.00305882    -0.34600
N704        N  0.54353366  0.50212263  0.00045074    -0.55200
N705        N  0.49854462  0.45680786  0.99695212    -0.34600
N706        N  0.54345894  0.41137125  0.99967787    -0.55200
C707        C  0.60578987  0.48060286  0.00087446     0.29000
C708        C  0.60576759  0.43284439  0.00055666     0.29000
C709        C  0.48133673  0.48067702  0.00005656     0.29000
C710        C  0.48127279  0.43293880  0.99972267     0.29000
C711        C  0.56723705  0.51968603  0.00094726     0.37600
C712        C  0.51987938  0.51970885  0.99929375     0.37600
C713        C  0.56715504  0.39378172  0.00008043     0.37600
C714        C  0.51974972  0.39383702  0.99841669     0.37600
C715        C  0.63457618  0.47173215  0.99784619    -0.19900
C716        C  0.63456451  0.44175184  0.99764968    -0.19900
C717        C  0.45265714  0.47180919  0.00398486    -0.19900
C718        C  0.45261533  0.44183276  0.00377614    -0.19900
C719        C  0.55853985  0.54866478  0.00016653    -0.20900
C720        C  0.52863259  0.54867740  0.99910483    -0.20900
C721        C  0.55839886  0.36482679  0.99907998    -0.20900
C722        C  0.52846891  0.36486254  0.99801220    -0.20900
C723        C  0.59666715  0.51022911  0.00118838    -0.16300
C724        C  0.59662353  0.40321398  0.00051671    -0.16300
C725        C  0.49030726  0.40330866  0.99872257    -0.16300
C726        C  0.49044803  0.51028828  0.99942107    -0.16300
H727        H  0.65367886  0.48542572  0.99557410     0.16600
H728        H  0.65366291  0.42809004  0.99519812     0.16600
H729        H  0.43366606  0.48550209  0.00703190     0.16600
H730        H  0.43358013  0.42815537  0.00663472     0.16600
H731        H  0.57229100  0.56786120  0.00016516     0.14900
H732        H  0.51491920  0.56788377  0.99840493     0.14900
H733        H  0.57212739  0.34561884  0.99898818     0.14900
H734        H  0.51471499  0.34568423  0.99721522     0.14900
H735        H  0.56641830  0.45667914  0.00773852     0.28200
H736        H  0.52034530  0.45682670  0.99114147     0.28200
N737        N  0.04085123  0.50181921  0.50010830    -0.34600
N738        N  0.04313851  0.45683962  0.45467301    -0.55200
N739        N  0.04580812  0.41182607  0.49997480    -0.34600
N740        N  0.04372893  0.45678369  0.54541188    -0.55200
C741        C  0.04377585  0.51907305  0.47625956     0.29000
C742        C  0.04368966  0.51904637  0.52398629     0.29000
C743        C  0.04333936  0.39455004  0.47609088     0.29000
C744        C  0.04350094  0.39450563  0.52384033     0.29000
C745        C  0.04268543  0.48056647  0.43714770     0.37600
C746        C  0.04378214  0.43316159  0.43707584     0.37600
C747        C  0.04306607  0.48046465  0.56300446     0.37600
C748        C  0.04442811  0.43305548  0.56294157     0.37600
C749        C  0.04767620  0.54775129  0.48516643    -0.19900
C750        C  0.04760233  0.54773687  0.51513538    -0.19900
C751        C  0.04018172  0.36577074  0.48495269    -0.19900
C752        C  0.04028066  0.36574219  0.51493264    -0.19900
C753        C  0.04294066  0.47187188  0.40816820    -0.20900
C754        C  0.04363991  0.44194009  0.40812359    -0.20900
C755        C  0.04344467  0.47169834  0.59195615    -0.20900
C756        C  0.04433164  0.44176732  0.59191711    -0.20900
C757        C  0.04313831  0.50999327  0.44663952    -0.16300
C758        C  0.04298335  0.50992311  0.55358526    -0.16300
C759        C  0.04418581  0.40360323  0.55346806    -0.16300
C760        C  0.04391005  0.40369707  0.44648449    -0.16300
H761        H  0.05063381  0.56677976  0.47150678     0.16600
H762        H  0.05051876  0.56674586  0.52883329     0.16600
H763        H  0.03777891  0.34668908  0.47125659     0.16600
H764        H  0.03798019  0.34662848  0.52859875     0.16600
H765        H  0.04289596  0.48564085  0.38899310     0.14900
H766        H  0.04397524  0.42823106  0.38890811     0.14900
H767        H  0.04324017  0.48541888  0.61116563     0.14900
H768        H  0.04465935  0.42800881  0.61109633     0.14900
H769        H  0.03518422  0.47999494  0.50009625     0.28200
H770        H  0.05077638  0.43380222  0.49997853     0.28200
N771        N  0.58845522  0.95994342  0.50002715    -0.34600
N772        N  0.54366209  0.95661210  0.45466591    -0.55200
N773        N  0.49856028  0.95327906  0.49992142    -0.34600
N774        N  0.54334476  0.95658703  0.54530198    -0.55200
C775        C  0.60580070  0.95732065  0.47619839     0.29000
C776        C  0.60566861  0.95718511  0.52392122     0.29000
C777        C  0.48142519  0.95652729  0.47602610     0.29000
C778        C  0.48126385  0.95634492  0.52373522     0.29000
C779        C  0.56735268  0.95767748  0.43711249     0.37600
C780        C  0.52001361  0.95575607  0.43705521     0.37600
C781        C  0.56701838  0.95717964  0.56290724     0.37600
C782        C  0.51964702  0.95522089  0.56283993     0.37600
C783        C  0.63449832  0.95372218  0.48513006    -0.19900
C784        C  0.63441946  0.95364511  0.51509701    -0.19900
C785        C  0.45278170  0.96084756  0.48482541    -0.19900
C786        C  0.45268122  0.96073648  0.51478549    -0.19900
C787        C  0.55866529  0.95747023  0.40813552    -0.20900
C788        C  0.52877016  0.95621545  0.40809885    -0.20900
C789        C  0.55825710  0.95624172  0.59185327    -0.20900
C790        C  0.52834633  0.95496294  0.59180768    -0.20900
C791        C  0.59676982  0.95789376  0.44657207    -0.16300
C792        C  0.59648372  0.95747327  0.55351265    -0.16300
C793        C  0.49021984  0.95537305  0.55336952    -0.16300
C794        C  0.49057498  0.95587292  0.44644454    -0.16300
H795        H  0.65357034  0.95099492  0.47148466     0.16600
H796        H  0.65343083  0.95083754  0.52881081     0.16600
H797        H  0.43386669  0.96417514  0.47109466     0.16600
H798        H  0.43367683  0.96395675  0.52841671     0.16600
H799        H  0.57241349  0.95805091  0.38895463     0.14900
H800        H  0.51505920  0.95596889  0.38888383     0.14900
H801        H  0.57197528  0.95624964  0.61106472     0.14900
H802        H  0.51459063  0.95412271  0.61097356     0.14900
H803        H  0.56651494  0.96521985  0.50001002     0.28200
H804        H  0.52031664  0.94722807  0.49994988     0.28200
C805        C  0.11960054  0.03223768  0.49959829    -0.11300
C806        C  0.13808458  0.05108032  0.49953416    -0.12800
C807        C  0.13807078  0.45619689  0.09438432    -0.11300
C808        C  0.11953923  0.45654627  0.07560642    -0.12800
C809        C  0.54428422  0.03267162  0.07548350    -0.11300
C810        C  0.54391609  0.05138411  0.09406736    -0.12800
C811        C  0.63773818  0.55140934  0.00032455    -0.11300
C812        C  0.61920742  0.53262602  0.00062285    -0.12800
C813        C  0.63810391  0.36240350  0.99958753    -0.11300
C814        C  0.61923851  0.38086755  0.99987616    -0.12800
C815        C  0.44929668  0.55135536  0.00020762    -0.11300
C816        C  0.46791839  0.53267512  0.99995170    -0.12800
C817        C  0.70466023  0.61774550  0.94743996    -0.16500
C818        C  0.71599464  0.62931314  0.92671730     0.07600
C819        C  0.72950636  0.64386869  0.90317220     0.09400
C820        C  0.74009942  0.65589317  0.88231814    -0.17300
C821        C  0.63777669  0.95639474  0.59445538    -0.11300
C822        C  0.61903527  0.95679356  0.57588887    -0.12800
C823        C  0.70398599  0.90333400  0.66141940    -0.16500
C824        C  0.71570853  0.88271230  0.67277761     0.07600
C825        C  0.73036313  0.85928869  0.68638499     0.09400
C826        C  0.74235206  0.83845550  0.69705343    -0.17300
C827        C  0.74258325  0.26012659  0.88160117    -0.16500
C828        C  0.73071983  0.27071647  0.90254870     0.07600
C829        C  0.71637151  0.28428296  0.92619257     0.09400
C830        C  0.70488040  0.29566753  0.94693425    -0.17300
C831        C  0.70442192  0.00960579  0.66065565    -0.16500
C832        C  0.71552471  0.03027583  0.67254712     0.07600
C833        C  0.72902877  0.05360966  0.68746328     0.09400
C834        C  0.73985917  0.07426216  0.69964410    -0.17300
C835        C  0.04329425  0.36229142  0.59442663    -0.11300
C836        C  0.04362371  0.38100537  0.57581921    -0.12800
C837        C  0.92528917  0.25745513  0.69674270    -0.16500
C838        C  0.94605955  0.26955198  0.68607235     0.07600
C839        C  0.96946421  0.28427982  0.67251067     0.09400
C840        C  0.99012214  0.29598828  0.66120068    -0.17300
C841        C  0.04317270  0.55132111  0.59443817    -0.11300
C842        C  0.04319211  0.53251992  0.57592658    -0.12800
C843        C  0.98983095  0.61785001  0.66076428    -0.16500
C844        C  0.96920557  0.62908088  0.67259396     0.07600
C845        C  0.94590889  0.64268521  0.68744199     0.09400
C846        C  0.92523929  0.65344007  0.69962946    -0.17300
C847        C  0.38244531  0.61728733  0.94695274    -0.16500
C848        C  0.37070259  0.62848144  0.92626291     0.07600
C849        C  0.35602949  0.64207945  0.90285476     0.09400
C850        C  0.34400565  0.65285204  0.88209964    -0.17300
C851        C  0.16171781  0.65522444  0.69633729    -0.16500
C852        C  0.14073403  0.64348265  0.68569011     0.07600
C853        C  0.11698646  0.62927923  0.67217765     0.09400
C854        C  0.09613100  0.61785276  0.66095291    -0.17300
C855        C  0.44874006  0.95593992  0.59420123    -0.11300
C856        C  0.46754310  0.95574685  0.57566808    -0.12800
C857        C  0.38175884  0.90279838  0.66025354    -0.16500
C858        C  0.37061725  0.88212908  0.67210768     0.07600
C859        C  0.35722490  0.85875971  0.68705343     0.09400
C860        C  0.34661739  0.83804248  0.69930075    -0.17300
C861        C  0.20470354  0.11751374  0.55250111    -0.16500
C862        C  0.21585941  0.12899903  0.57335703     0.07600
C863        C  0.22924056  0.14333573  0.59709551     0.09400
C864        C  0.23980620  0.15518443  0.61805689    -0.17300
C865        C  0.16163844  0.26025672  0.69889402    -0.16500
C866        C  0.14083257  0.27097103  0.68686103     0.07600
C867        C  0.11725324  0.28432755  0.67217750     0.09400
C868        C  0.09645108  0.29536706  0.66044389    -0.17300
C869        C  0.34455867  0.07465935  0.69604324    -0.16500
C870        C  0.35643651  0.05372666  0.68541470     0.07600
C871        C  0.37086732  0.03000277  0.67204935     0.09400
C872        C  0.38242887  0.00914506  0.66093446    -0.17300
C873        C  0.44885919  0.36245967  0.99946521    -0.11300
C874        C  0.46766027  0.38099062  0.99916985    -0.12800
C875        C  0.38247290  0.29576066  0.94648515    -0.16500
C876        C  0.37133460  0.28404544  0.92574164     0.07600
C877        C  0.35790069  0.26938987  0.90221846     0.09400
C878        C  0.34727575  0.25732852  0.88140389    -0.17300
C879        C  0.04438121  0.55125339  0.40569515    -0.11300
C880        C  0.04400827  0.53257480  0.42431480    -0.12800
C881        C  0.74268719  0.65297784  0.11872142    -0.16500
C882        C  0.73059074  0.64220997  0.09799332     0.07600
C883        C  0.71580929  0.62881192  0.07451860     0.09400
C884        C  0.70398121  0.61783614  0.05374853    -0.17300
C885        C  0.92528552  0.65585532  0.30459486    -0.16500
C886        C  0.94598859  0.64369679  0.31536222     0.07600
C887        C  0.96959237  0.62909785  0.32875827     0.09400
C888        C  0.99051994  0.61755493  0.33975374    -0.17300
C889        C  0.63781796  0.95741046  0.40536284    -0.11300
C890        C  0.61934066  0.95757736  0.42419881    -0.12800
C891        C  0.73971453  0.83848908  0.30167173    -0.16500
C892        C  0.72909769  0.85939559  0.31359177     0.07600
C893        C  0.71566590  0.88315072  0.32788324     0.09400
C894        C  0.70444351  0.90407369  0.33920247    -0.17300
C895        C  0.59726822  0.11772851  0.16043154    -0.16500
C896        C  0.61805087  0.12875593  0.17220901     0.07600
C897        C  0.64154908  0.14220588  0.18693350     0.09400
C898        C  0.66228306  0.15300424  0.19901539    -0.17300
C899        C  0.73992708  0.25789883  0.11828935    -0.16500
C900        C  0.72905277  0.26992919  0.09757405     0.07600
C901        C  0.71557091  0.28460393  0.07407183     0.09400
C902        C  0.70458960  0.29636561  0.05326225    -0.17300
C903        C  0.70404019  0.01047740  0.33861347    -0.16500
C904        C  0.71589738  0.03130167  0.32776948     0.07600
C905        C  0.73070900  0.05490010  0.31463310     0.09400
C906        C  0.74284241  0.07571028  0.30407399    -0.17300
C907        C  0.24309952  0.57441476  0.19626996    -0.16500
C908        C  0.23096829  0.55376372  0.18539185     0.07600
C909        C  0.21616814  0.53041117  0.17180757     0.09400
C910        C  0.20436186  0.50970598  0.16068770    -0.17300
C911        C  0.38207145  0.61721296  0.05320257    -0.16500
C912        C  0.37086136  0.62888296  0.07392271     0.07600
C913        C  0.35749679  0.64351488  0.09748252     0.09400
C914        C  0.34701303  0.65552931  0.11838354    -0.17300
C915        C  0.16226154  0.65284004  0.30077235    -0.16500
C916        C  0.14135988  0.64223381  0.31267401     0.07600
C917        C  0.11770875  0.62890492  0.32718270     0.09400
C918        C  0.09691872  0.61786806  0.33889567    -0.17300
C919        C  0.46807015  0.95664637  0.42404760    -0.11300
C920        C  0.44950248  0.95705186  0.40532262    -0.12800
C921        C  0.38316416  0.90362242  0.33903703    -0.16500
C922        C  0.37136615  0.88285955  0.32800080     0.07600
C923        C  0.35659284  0.85941481  0.31451857     0.09400
C924        C  0.34443753  0.83872517  0.30371962    -0.17300
C925        C  0.24322337  0.15349238  0.38170869    -0.16500
C926        C  0.23103291  0.14271914  0.40236878     0.07600
C927        C  0.21614964  0.12909937  0.42563937     0.09400
C928        C  0.20429526  0.11783747  0.44623578    -0.17300
C929        C  0.49092264  0.11767390  0.16088240    -0.16500
C930        C  0.47020819  0.12927460  0.17218814     0.07600
C931        C  0.44670498  0.14382838  0.18575475     0.09400
C932        C  0.42588480  0.15582225  0.19643745    -0.17300
C933        C  0.24087463  0.33838522  0.19866362    -0.16500
C934        C  0.23024713  0.35929589  0.18678018     0.07600
C935        C  0.21662083  0.38279836  0.17227918     0.09400
C936        C  0.20521109  0.40343560  0.16063910    -0.17300
C937        C  0.34475301  0.25958323  0.11767991    -0.16500
C938        C  0.35674633  0.27035098  0.09689657     0.07600
C939        C  0.37129399  0.28405340  0.07345402     0.09400
C940        C  0.38288044  0.29543615  0.05276621    -0.17300
C941        C  0.34733261  0.07517072  0.30100156    -0.16500
C942        C  0.35800479  0.05423801  0.31278542     0.07600
C943        C  0.37170262  0.03065490  0.32705572     0.09400
C944        C  0.38311337  0.00993721  0.33853185    -0.17300
C945        C  0.04411851  0.36245786  0.40545484    -0.11300
C946        C  0.04392587  0.38113131  0.42410102    -0.12800
C947        C  0.92569752  0.26087380  0.30104940    -0.16500
C948        C  0.94655075  0.27153419  0.31300388     0.07600
C949        C  0.97020638  0.28488593  0.32749963     0.09400
C950        C  0.99106571  0.29595059  0.33906696    -0.17300
C951        C  0.09738613  0.29638152  0.33849043    -0.16500
C952        C  0.11803709  0.28456695  0.32726705     0.07600
C953        C  0.14143542  0.26975420  0.31376451     0.09400
C954        C  0.16219706  0.25762234  0.30310278    -0.17300
C955        C  0.49008935  0.79603342  0.83880463    -0.16500
C956        C  0.46933624  0.78433495  0.82767051     0.07600
C957        C  0.44581358  0.76964677  0.81428124     0.09400
C958        C  0.42501243  0.75752167  0.80370375    -0.17300
C959        C  0.59640015  0.79578116  0.83931373    -0.16500
C960        C  0.61713277  0.78450861  0.82771078     0.07600
C961        C  0.64061664  0.77088885  0.81317132     0.09400
C962        C  0.66140657  0.76011274  0.80120615    -0.17300
C963        C  0.54298122  0.86246103  0.90543555    -0.11300
C964        C  0.54265508  0.88096005  0.92424266    -0.12800
C965        C  0.20393751  0.40294302  0.83831788    -0.16500
C966        C  0.21573988  0.38224533  0.82716605     0.07600
C967        C  0.23058110  0.35879691  0.81377878     0.09400
C968        C  0.24274551  0.33802913  0.80316296    -0.17300
C969        C  0.23970909  0.57465863  0.80106754    -0.16500
C970        C  0.22909515  0.55377046  0.81303677     0.07600
C971        C  0.21575024  0.53011602  0.82759960     0.09400
C972        C  0.20464573  0.50929009  0.83922971    -0.17300
C973        C  0.13785147  0.45593874  0.90538292    -0.11300
C974        C  0.11928246  0.45570787  0.92414988    -0.12800
C975        C  0.59687468  0.11725909  0.83845582    -0.16500
C976        C  0.61759449  0.12894687  0.82725439     0.07600
C977        C  0.64113078  0.14359784  0.81386233     0.09400
C978        C  0.66200486  0.15562028  0.80332594    -0.17300
C979        C  0.49056560  0.11737231  0.83894659    -0.16500
C980        C  0.46982456  0.12852342  0.82723051     0.07600
C981        C  0.44635943  0.14203768  0.81253888     0.09400
C982        C  0.42559691  0.15276565  0.80046344    -0.17300
C983        C  0.54391935  0.05131254  0.90561604    -0.11300
C984        C  0.54367304  0.03263736  0.92424144    -0.12800
C985        C  0.88207493  0.50978085  0.83938816    -0.16500
C986        C  0.87053484  0.53051906  0.82806028     0.07600
C987        C  0.85619551  0.55415896  0.81450099     0.09400
C988        C  0.84438158  0.57511327  0.80388109    -0.17300
C989        C  0.88284413  0.40343053  0.83975576    -0.16500
C990        C  0.87186393  0.38264039  0.82794875     0.07600
C991        C  0.85840622  0.35921668  0.81311377     0.09400
C992        C  0.84757860  0.33856692  0.80091369    -0.17300
C993        C  0.94889129  0.45722576  0.90605240    -0.11300
C994        C  0.96759995  0.45684855  0.92464326    -0.12800
C995        C  0.88323014  0.40391334  0.16094956    -0.16500
C996        C  0.87192490  0.38295696  0.17211568     0.07600
C997        C  0.85755080  0.35923421  0.18550511     0.09400
C998        C  0.84551794  0.33839435  0.19612181    -0.17300
C999        C  0.88236863  0.51033681  0.16075423    -0.16500
C1000       C  0.87156230  0.53118892  0.17259054     0.07600
C1001       C  0.85846438  0.55485041  0.18732952     0.09400
C1002       C  0.84788490  0.57569106  0.19938891    -0.17300
C1003       C  0.96786363  0.45766167  0.07584439    -0.11300
C1004       C  0.94906029  0.45753280  0.09433514    -0.12800
C1005       C  0.59683484  0.79660004  0.16104198    -0.16500
C1006       C  0.61764777  0.78473767  0.17191515     0.07600
C1007       C  0.64111243  0.76992709  0.18532379     0.09400
C1008       C  0.66177689  0.75780802  0.19620824    -0.17300
C1009       C  0.49048367  0.79585819  0.16154010    -0.16500
C1010       C  0.46978327  0.78437737  0.17302272     0.07600
C1011       C  0.44617709  0.77070000  0.18733972     0.09400
C1012       C  0.42522688  0.76005250  0.19915678    -0.17300
C1013       C  0.54305413  0.86258636  0.09465153    -0.11300
C1014       C  0.54342221  0.88099103  0.07573786    -0.12800
C1015       C  0.88262392  0.79573402  0.44755948    -0.16500
C1016       C  0.87116711  0.78466936  0.42664300     0.07600
C1017       C  0.85676709  0.77138875  0.40289075     0.09400
C1018       C  0.84482325  0.76083143  0.38198085    -0.17300
C1019       C  0.88221818  0.79611038  0.55387219    -0.16500
C1020       C  0.87106226  0.78432768  0.57456591     0.07600
C1021       C  0.85755381  0.76960485  0.59799872     0.09400
C1022       C  0.84682964  0.75754518  0.61875749    -0.17300
C1023       C  0.94878008  0.86247955  0.50054596    -0.11300
C1024       C  0.96746973  0.88110561  0.50030938    -0.12800
C1025       C  0.88237622  0.11768041  0.55323589    -0.16500
C1026       C  0.87076448  0.12880287  0.57403394     0.07600
C1027       C  0.85638225  0.14218972  0.59772828     0.09400
C1028       C  0.84454590  0.15277425  0.61867541    -0.17300
C1029       C  0.84823916  0.15573120  0.38167141    -0.16500
C1030       C  0.85896553  0.14348526  0.40234269     0.07600
C1031       C  0.87228090  0.12878123  0.42592554     0.09400
C1032       C  0.88320989  0.11718650  0.44685612    -0.17300
C1033       C  0.94932555  0.05114602  0.50078506    -0.11300
C1034       C  0.96795824  0.03248291  0.50038326    -0.12800
C1035       C  0.24267502  0.76004352  0.61801722    -0.16500
C1036       C  0.23063378  0.77070351  0.59718378     0.07600
C1037       C  0.21589660  0.78404227  0.57361710     0.09400
C1038       C  0.20409194  0.79509154  0.55285517    -0.17300
C1039       C  0.24032371  0.75740929  0.38169653    -0.16500
C1040       C  0.22967635  0.76944020  0.40250362     0.07600
C1041       C  0.21611382  0.78411996  0.42591984     0.09400
C1042       C  0.20478652  0.79579464  0.44657468    -0.17300
C1043       C  0.13779698  0.86186872  0.49971148    -0.11300
C1044       C  0.11923614  0.88064139  0.49997011    -0.12800
loop_ 
_geom_bond_atom_site_label_1 
_geom_bond_atom_site_label_2 
_geom_bond_distance 
_geom_bond_site_symmetry_2 
_ccdc_geom_bond_type 
C1            C2   1.396       .  A
C1            C6   1.404       .  A
C1         C1038   1.441       .  S
C2            C3   1.397       .  A
C2            H7   1.085       .  S
C3            C4   1.404       .  A
C3         C1042   1.439       .  S
C4            C5   1.406       .  A
C4            H8   1.084       .  S
C5            C6   1.406       .  A
C5         C1043   1.446       .  S
C6            H9   1.084       .  S
C10          C11   1.397       .  A
C10          C15   1.403       .  A
C10        C1025   1.439       .  S
C11          C12   1.397       .  A
C11          H16   1.085       .  S
C12          C13   1.403       .  A
C12        C1032   1.440       .  S
C13          C14   1.405       .  A
C13          H17   1.084       .  S
C14          C15   1.405       .  A
C14        C1033   1.444       .  S
C15          H18   1.084       .  S
C19          C20   1.404       .  A
C19          C24   1.397       .  A
C19        C1019   1.440       .  S
C20          C21   1.406       .  A
C20          H25   1.084       .  S
C21          C22   1.405       .  A
C21        C1023   1.445       .  S
C22          C23   1.403       .  A
C22          H26   1.084       .  S
C23          C24   1.396       .  A
C23        C1015   1.439       .  S
C24          H27   1.085       .  S
C28          C29   1.397       .  A
C28          C33   1.403       .  A
C28        C1005   1.440       .  S
C29          C30   1.397       .  A
C29          H34   1.085       .  S
C30          C31   1.404       .  A
C30        C1009   1.440       .  S
C31          C32   1.406       .  A
C31          H35   1.084       .  S
C32          C33   1.406       .  A
C32        C1013   1.446       .  S
C33          H36   1.084       .  S
C37          C38   1.397       .  A
C37          C42   1.403       .  A
C37         C995   1.439       .  S
C38          C39   1.397       .  A
C38          H43   1.085       .  S
C39          C40   1.403       .  A
C39         C999   1.440       .  S
C40          C41   1.405       .  A
C40          H44   1.084       .  S
C41          C42   1.405       .  A
C41        C1004   1.444       .  S
C42          H45   1.084       .  S
C46          C47   1.403       .  A
C46          C51   1.397       .  A
C46         C989   1.440       .  S
C47          C48   1.405       .  A
C47          H52   1.084       .  S
C48          C49   1.406       .  A
C48         C993   1.445       .  S
C49          C50   1.404       .  A
C49          H53   1.084       .  S
C50          C51   1.397       .  A
C50         C985   1.440       .  S
C51          H54   1.085       .  S
C55          C56   1.403       .  A
C55          C60   1.396       .  A
C55         C975   1.439       .  S
C56          C57   1.406       .  A
C56          H61   1.084       .  S
C57          C58   1.406       .  A
C57         C983   1.445       .  S
C58          C59   1.403       .  A
C58          H62   1.084       .  S
C59          C60   1.396       .  A
C59         C979   1.440       .  S
C60          H63   1.085       .  S
C64          C65   1.404       .  A
C64          C69   1.397       .  A
C64         C965   1.440       .  S
C65          C66   1.406       .  A
C65          H70   1.084       .  S
C66          C67   1.406       .  A
C66         C973   1.447       .  S
C67          C68   1.404       .  A
C67          H71   1.084       .  S
C68          C69   1.397       .  A
C68         C972   1.440       .  S
C69          H72   1.085       .  S
C73          C74   1.404       .  A
C73          C78   1.396       .  A
C73         C959   1.439       .  S
C74          C75   1.406       .  A
C74          H79   1.084       .  S
C75          C76   1.405       .  A
C75         C963   1.445       .  S
C76          C77   1.403       .  A
C76          H80   1.084       .  S
C77          C78   1.396       .  A
C77         C955   1.439       .  S
C78          H81   1.085       .  S
C82          C83   1.397       .  A
C82          C87   1.404       .  A
C82         C951   1.440       .  S
C83          C84   1.396       .  A
C83          H88   1.085       .  S
C84          C85   1.403       .  A
C84         C950   1.439   1_455  S
C85          C86   1.405       .  A
C85          H89   1.084   1_455  S
C86          C87   1.406       .  A
C86         C945   1.446       .  S
C87          H90   1.084       .  S
O91         Mg93   2.149       .  S
O91         Mg99   2.162       .  S
O91         C126   1.235       .  S
C92         H131   1.081       .  S
C92         O105   1.235       .  S
C92         O129   1.269       .  A
Mg93        O122   2.161       .  S
Mg93        O137   2.295       .  S
Mg93        O133   2.265       .  S
Mg93        O104   2.297       .  S
O94        Mg136   2.161       .  S
O94        Mg119   2.147       .  S
O94         C115   1.235       .  S
O95         C126   1.269       .  A
O95        Mg119   2.297       .  S
C96         C954   1.435       .  S
C96          O98   1.270       .  A
C96         O110   1.273       .  A
O97         C125   1.269       .  A
O97         Mg99   2.297       .  S
O98        Mg130   2.265       .  S
Mg99        O105   2.146       .  S
Mg99        O113   2.262       .  S
Mg99        O101   2.297       .  S
C100        C933   1.434       .  S
C100        O138   1.270       .  A
C100        O106   1.272       .  A
O101        C108   1.272       .  A
H102        C115   1.081       .  S
C103        H128   1.081       .  S
C103        O117   1.235       .  S
C103        O118   1.269       .  A
O104        C127   1.269       .  A
O105       Mg119   2.161       .  S
O106       Mg136   2.297       .  S
C107        C937   1.435       .  S
C107        O120   1.270       .  A
C107        O112   1.272       .  A
C108        C932   1.434       .  S
C108        O135   1.270       .  A
Mg109       O116   2.147       .  S
Mg109       O117   2.161       .  S
Mg109       O110   2.298       .  S
Mg109       O111   2.297       .  S
Mg109       O138   2.264       .  S
O111        C115   1.269       .  A
O112       Mg119   2.296       .  S
O113        C132   1.270       .  A
O114        C134   1.272       .  A
O114       Mg130   2.296       .  S
O116       Mg130   2.160       .  S
O116        C127   1.235       .  S
O117       Mg136   2.148       .  S
O118       Mg130   2.297       .  S
Mg119       O135   2.264       .  S
O120       Mg136   2.266       .  S
H121        C126   1.081       .  S
O122       Mg130   2.147       .  S
O122        C125   1.235       .  S
H123        C125   1.081       .  S
H124        C127   1.081       .  S
O129       Mg136   2.297       .  S
C132        C941   1.434       .  S
C132        O137   1.272       .  A
O133        C134   1.270       .  A
C134        C925   1.435       .  S
C139        C140   1.404       .  A
C139        C144   1.396       .  A
C139        C944   1.439   1_565  S
C140        C141   1.406       .  A
C140        H145   1.084   1_565  S
C141        C142   1.405       .  A
C141        C920   1.444       .  S
C142        C143   1.403       .  A
C142        H146   1.084       .  S
C143        C144   1.396       .  A
C143        C921   1.440       .  S
C144        H147   1.085       .  S
O148       Mg150   2.149       .  S
O148       Mg156   2.159       .  S
O148        C183   1.234       .  S
C149        H188   1.081       .  S
C149        O162   1.235       .  S
C149        O186   1.269       .  A
Mg150       O179   2.163       .  S
Mg150       O194   2.295       .  S
Mg150       O190   2.265       .  S
Mg150       O161   2.296       .  S
O151       Mg193   2.165       .  S
O151       Mg176   2.150       .  S
O151        C172   1.235       .  S
O152        C183   1.269       .  A
O152       Mg176   2.298       .  S
C153        C924   1.436       .  S
C153        O155   1.271       .  A
C153        O167   1.273       .  A
O154        C182   1.270       .  A
O154       Mg156   2.299       .  S
O155       Mg187   2.268       .  S
Mg156       O162   2.142       .  S
Mg156       O170   2.261       .  S
Mg156       O158   2.300       .  S
C157       C1012   1.435       .  S
C157        O195   1.270       .  A
C157        O163   1.272       .  A
O158        C165   1.273       .  A
H159        C172   1.081       .  S
C160        H185   1.081       .  S
C160        O174   1.235       .  S
C160        O175   1.269       .  A
O161        C184   1.269       .  A
O162       Mg176   2.159       .  S
O163       Mg193   2.297       .  S
C164        C914   1.434       .  S
C164        O177   1.270       .  A
C164        O169   1.272       .  A
C165        C907   1.435       .  S
C165        O192   1.270       .  A
Mg166       O173   2.143       .  S
Mg166       O174   2.162       .  S
Mg166       O167   2.300       .  S
Mg166       O168   2.297       .  S
Mg166       O195   2.263       .  S
O168        C172   1.269       .  A
O169       Mg176   2.292       .  S
O170        C189   1.270       .  A
O171        C191   1.272       .  A
O171       Mg187   2.295       .  S
O173       Mg187   2.157       .  S
O173        C184   1.235       .  S
O174       Mg193   2.151       .  S
O175       Mg187   2.298       .  S
Mg176       O192   2.265       .  S
O177       Mg193   2.266       .  S
H178        C183   1.081       .  S
O179       Mg187   2.151       .  S
O179        C182   1.235       .  S
H180        C182   1.081       .  S
H181        C184   1.081       .  S
O186       Mg193   2.297       .  S
C189        C915   1.434       .  S
C189        O194   1.272       .  A
O190        C191   1.270       .  A
C191       C1039   1.434       .  S
O196       Mg198   2.152       .  S
O196       Mg204   2.163       .  S
O196        C231   1.235       .  S
C197        H236   1.081       .  S
C197        O210   1.235       .  S
C197        O234   1.269       .  A
Mg198       O227   2.161       .  S
Mg198       O242   2.296       .  S
Mg198       O238   2.268       .  S
Mg198       O209   2.299       .  S
O199       Mg241   2.164       .  S
O199       Mg224   2.152       .  S
O199        C220   1.235       .  S
O200        C231   1.269       .  A
O200       Mg224   2.299       .  S
C201        C899   1.436       .  S
C201        O203   1.270       .  A
C201        O215   1.273       .  A
O202        C230   1.269       .  A
O202       Mg204   2.297       .  S
O203       Mg235   2.265       .  S
Mg204       O210   2.147       .  S
Mg204       O218   2.264       .  S
Mg204       O206   2.298       .  S
C205        C998   1.435       .  S
C205        O243   1.270       .  A
C205        O211   1.272       .  A
O206        C213   1.272       .  A
H207        C220   1.081       .  S
C208        H233   1.081       .  S
C208        O222   1.235       .  S
C208        O223   1.269       .  A
O209        C232   1.269       .  A
O210       Mg224   2.160       .  S
O211       Mg241   2.295       .  S
C212        C947   1.434       .  S
C212        O225   1.270       .  A
C212        O217   1.272       .  A
C213       C1029   1.436       .  S
C213        O240   1.271       .  A
Mg214       O221   2.150       .  S
Mg214       O222   2.161       .  S
Mg214       O215   2.301       .  S
Mg214       O216   2.299       .  S
Mg214       O243   2.267       .  S
O216        C220   1.269       .  A
O217       Mg224   2.295       .  S
O218        C237   1.270       .  A
O219        C239   1.272       .  A
O219       Mg235   2.299       .  S
O221       Mg235   2.161       .  S
O221        C232   1.235       .  S
O222       Mg241   2.151       .  S
O223       Mg235   2.298       .  S
Mg224       O240   2.269       .  S
O225       Mg241   2.264       .  S
H226        C231   1.081       .  S
O227       Mg235   2.149       .  S
O227        C230   1.235       .  S
H228        C230   1.081       .  S
H229        C232   1.081       .  S
O234       Mg241   2.296       .  S
C237        C906   1.435       .  S
C237        O242   1.272       .  A
O238        C239   1.270       .  A
C239        C898   1.436       .  S
C244        C245   1.397       .  A
C244        C249   1.403       .  A
C244        C903   1.440   1_565  S
C245        C246   1.397       .  A
C245        H250   1.085       .  S
C246        C247   1.404       .  A
C246        C894   1.440       .  S
C247        C248   1.406       .  A
C247        H251   1.084       .  S
C248        C249   1.405       .  A
C248        C889   1.445       .  S
C249        H252   1.084   1_565  S
O253       Mg255   2.147       .  S
O253       Mg261   2.161       .  S
O253        C288   1.235       .  S
C254        H293   1.081       .  S
C254        O267   1.235       .  S
C254        O291   1.269       .  A
Mg255       O284   2.164       .  S
Mg255       O299   2.297       .  S
Mg255       O295   2.263       .  S
Mg255       O266   2.298       .  S
O256       Mg298   2.161       .  S
O256       Mg281   2.153       .  S
O256        C277   1.235       .  S
O257        C288   1.269       .  A
O257       Mg281   2.296       .  S
C258        C881   1.435       .  S
C258        O260   1.270       .  A
C258        O272   1.273       .  A
O259        C287   1.269       .  A
O259       Mg261   2.298       .  S
O260       Mg292   2.266       .  S
Mg261       O267   2.152       .  S
Mg261       O275   2.268       .  S
Mg261       O263   2.294       .  S
C262       C1008   1.436       .  S
C262        O300   1.270       .  A
C262        O268   1.273       .  A
O263        C270   1.272       .  A
H264        C277   1.081       .  S
C265        H290   1.081       .  S
C265        O279   1.235       .  S
C265        O280   1.269       .  A
O266        C289   1.269       .  A
O267       Mg281   2.164       .  S
O268       Mg298   2.301       .  S
C269        C891   1.435       .  S
C269        O282   1.270       .  A
C269        O274   1.272       .  A
C270       C1018   1.434       .  S
C270        O297   1.270       .  A
Mg271       O278   2.149       .  S
Mg271       O279   2.159       .  S
Mg271       O272   2.298       .  S
Mg271       O273   2.299       .  S
Mg271       O300   2.266       .  S
O273        C277   1.269       .  A
O274       Mg281   2.296       .  S
O275        C294   1.271       .  A
O276        C296   1.272       .  A
O276       Mg292   2.297       .  S
O278       Mg292   2.162       .  S
O278        C289   1.235       .  S
O279       Mg298   2.149       .  S
O280       Mg292   2.299       .  S
Mg281       O297   2.267       .  S
O282       Mg298   2.267       .  S
H283        C288   1.081       .  S
O284       Mg292   2.151       .  S
O284        C287   1.235       .  S
H285        C287   1.081       .  S
H286        C289   1.081       .  S
O291       Mg298   2.299       .  S
C294        C885   1.436       .  S
C294        O299   1.272       .  A
O295        C296   1.270       .  A
C296       C1002   1.435       .  S
C301        C302   1.403       .  A
C301        C306   1.397       .  A
C301        C918   1.439       .  S
C302        C303   1.405       .  A
C302        H307   1.084       .  S
C303        C304   1.405       .  A
C303        C879   1.445       .  S
C304        C305   1.403       .  A
C304        H308   1.084   1_455  S
C305        C306   1.397       .  A
C305        C888   1.440   1_455  S
C306        H309   1.085       .  S
C310        C311   1.404       .  A
C310        C315   1.396   1_554  A
C310        C940   1.440       .  S
C311        C312   1.406   1_554  A
C311        H316   1.084       .  S
C312        C313   1.406       .  A
C312        C873   1.446       .  S
C313        C314   1.403       .  A
C313        H317   1.084       .  S
C314        C315   1.396       .  A
C314        C875   1.440       .  S
C315        H318   1.085       .  S
O319       Mg321   2.152       .  S
O319       Mg327   2.162       .  S
O319        C354   1.235       .  S
C320        H359   1.081       .  S
C320        O333   1.235       .  S
C320        O357   1.269       .  A
Mg321       O350   2.163       .  S
Mg321       O365   2.297       .  S
Mg321       O361   2.268       .  S
Mg321       O332   2.297       .  S
O322       Mg364   2.160       .  S
O322       Mg347   2.149       .  S
O322        C343   1.235       .  S
O323        C354   1.269       .  A
O323       Mg347   2.298       .  S
C324        C878   1.435       .  S
C324        O326   1.270       .  A
C324        O338   1.273       .  A
O325        C353   1.269       .  A
O325       Mg327   2.297       .  S
O326       Mg358   2.265       .  S
Mg327       O333   2.149       .  S
Mg327       O341   2.266       .  S
Mg327       O329   2.298       .  S
C328        C968   1.435       .  S
C328        O366   1.270       .  A
C328        O334   1.272       .  A
O329        C336   1.273       .  A
H330        C343   1.081       .  S
C331        H356   1.081       .  S
C331        O345   1.235       .  S
C331        O346   1.269       .  A
O332        C355   1.269       .  A
O333       Mg347   2.161       .  S
O334       Mg364   2.296       .  S
C335        C865   1.436       .  S
C335        O348   1.271       .  A
C335        O340   1.273       .  A
C336        C864   1.435       .  S
C336        O363   1.270       .  A
Mg337       O344   2.147       .  S
Mg337       O345   2.161       .  S
Mg337       O338   2.298       .  S
Mg337       O339   2.299       .  S
Mg337       O366   2.265       .  S
O339        C343   1.270       .  A
O340       Mg347   2.299       .  S
O341        C360   1.270       .  A
O342        C362   1.272       .  A
O342       Mg358   2.297       .  S
O344       Mg358   2.161       .  S
O344        C355   1.235       .  S
O345       Mg364   2.151       .  S
O346       Mg358   2.298       .  S
Mg347       O363   2.265       .  S
O348       Mg364   2.268       .  S
H349        C354   1.081       .  S
O350       Mg358   2.148       .  S
O350        C353   1.235       .  S
H351        C353   1.081       .  S
H352        C355   1.081       .  S
O357       Mg364   2.298       .  S
C360        C869   1.436       .  S
C360        O365   1.272       .  A
O361        C362   1.271       .  A
C362        C982   1.435       .  S
C367        C368   1.397       .  A
C367        C372   1.404       .  A
C367        C872   1.440   1_565  S
C368        C369   1.397       .  A
C368        H373   1.085       .  S
C369        C370   1.404       .  A
C369        C857   1.440       .  S
C370        C371   1.406       .  A
C370        H374   1.084       .  S
C371        C372   1.406       .  A
C371        C855   1.447       .  S
C372        H375   1.084   1_565  S
O376       Mg378   2.149       .  S
O376       Mg384   2.161       .  S
O376        C411   1.235       .  S
C377        H416   1.081       .  S
C377        O390   1.235       .  S
C377        O414   1.269       .  A
Mg378       O407   2.162       .  S
Mg378       O422   2.299       .  S
Mg378       O418   2.266       .  S
Mg378       O389   2.297       .  S
O379       Mg421   2.161       .  S
O379       Mg404   2.151       .  S
O379        C400   1.235       .  S
O380        C411   1.269       .  A
O380       Mg404   2.298       .  S
C381        C850   1.435       .  S
C381        O383   1.271       .  A
C381        O395   1.272       .  A
O382        C410   1.269       .  A
O382       Mg384   2.298       .  S
O383       Mg415   2.266       .  S
Mg384       O390   2.147       .  S
Mg384       O398   2.263       .  S
Mg384       O386   2.300       .  S
C385        C958   1.434       .  S
C385        O423   1.270       .  A
C385        O391   1.272       .  A
O386        C393   1.273       .  A
H387        C400   1.081       .  S
C388        H413   1.081       .  S
C388        O402   1.235       .  S
C388        O403   1.269       .  A
O389        C412   1.269       .  A
O390       Mg404   2.160       .  S
O391       Mg421   2.297       .  S
C392        C860   1.434       .  S
C392        O405   1.270       .  A
C392        O397   1.272       .  A
C393       C1035   1.437       .  S
C393        O420   1.271       .  A
Mg394       O401   2.148       .  S
Mg394       O402   2.160       .  S
Mg394       O395   2.297       .  S
Mg394       O396   2.298       .  S
Mg394       O423   2.265       .  S
O396        C400   1.269       .  A
O397       Mg404   2.295       .  S
O398        C417   1.270       .  A
O399        C419   1.272       .  A
O399       Mg415   2.296       .  S
O401       Mg415   2.164       .  S
O401        C412   1.235       .  S
O402       Mg421   2.146       .  S
O403       Mg415   2.297       .  S
Mg404       O420   2.268       .  S
O405       Mg421   2.265       .  S
H406        C411   1.081       .  S
O407       Mg415   2.151       .  S
O407        C410   1.235       .  S
H408        C410   1.081       .  S
H409        C412   1.081       .  S
O414       Mg421   2.298       .  S
C417        C851   1.434       .  S
C417        O422   1.273       .  A
O418        C419   1.270       .  A
C419        C969   1.435       .  S
C424        C425   1.396       .  A
C424        C429   1.403       .  A
C424        C854   1.439       .  S
C425        C426   1.396       .  A
C425        H430   1.085       .  S
C426        C427   1.404       .  A
C426        C843   1.439   1_455  S
C427        C428   1.406       .  A
C427        H431   1.084   1_455  S
C428        C429   1.405       .  A
C428        C841   1.445       .  S
C429        H432   1.084       .  S
C433        C434   1.404       .  A
C433        C438   1.396       .  A
C433        C868   1.440       .  S
C434        C435   1.406       .  A
C434        H439   1.084       .  S
C435        C436   1.406       .  A
C435        C835   1.446       .  S
C436        C437   1.404       .  A
C436        H440   1.084   1_455  S
C437        C438   1.397       .  A
C437        C840   1.440   1_455  S
C438        H441   1.085       .  S
O442       Mg444   2.149       .  S
O442       Mg450   2.161       .  S
O442        C477   1.235       .  S
C443        H482   1.081       .  S
C443        O456   1.235       .  S
C443        O480   1.269       .  A
Mg444       O473   2.164       .  S
Mg444       O488   2.298       .  S
Mg444       O484   2.265       .  S
Mg444       O455   2.297       .  S
O445       Mg487   2.162       .  S
O445       Mg470   2.153       .  S
O445        C466   1.235       .  S
O446        C477   1.269       .  A
O446       Mg470   2.297       .  S
C447        C834   1.435       .  S
C447        O449   1.270       .  A
C447        O461   1.273       .  A
O448        C476   1.269       .  A
O448       Mg450   2.297       .  S
O449       Mg481   2.266       .  S
Mg450       O456   2.145       .  S
Mg450       O464   2.264       .  S
Mg450       O452   2.299       .  S
C451       C1028   1.434       .  S
C451        O489   1.270       .  A
C451        O457   1.272       .  A
O452        C459   1.273       .  A
H453        C466   1.081       .  S
C454        H479   1.081       .  S
C454        O468   1.235       .  S
C454        O469   1.269       .  A
O455        C478   1.269       .  A
O456       Mg470   2.159       .  S
O457       Mg487   2.297       .  S
C458        C837   1.434       .  S
C458        O471   1.270       .  A
C458        O463   1.272       .  A
C459        C992   1.436       .  S
C459        O486   1.271       .  A
Mg460       O467   2.143       .  S
Mg460       O468   2.160       .  S
Mg460       O461   2.301       .  S
Mg460       O462   2.299       .  S
Mg460       O489   2.261       .  S
O462        C466   1.270       .  A
O463       Mg470   2.294       .  S
O464        C483   1.270       .  A
O465        C485   1.272       .  A
O465       Mg481   2.292       .  S
O467       Mg481   2.160       .  S
O467        C478   1.235       .  S
O468       Mg487   2.149       .  S
O469       Mg481   2.298       .  S
Mg470       O486   2.268       .  S
O471       Mg487   2.265       .  S
H472        C477   1.081       .  S
O473       Mg481   2.151       .  S
O473        C476   1.235       .  S
H474        C476   1.081       .  S
H475        C478   1.081       .  S
O480       Mg487   2.297       .  S
C483        C827   1.435       .  S
C483        O488   1.272       .  A
O484        C485   1.270       .  A
C485        C978   1.434       .  S
C490        C491   1.403       .  A
C490        C495   1.396       .  A
C490        C831   1.439   1_565  S
C491        C492   1.406       .  A
C491        H496   1.084   1_565  S
C492        C493   1.406       .  A
C492        C821   1.445       .  S
C493        C494   1.404       .  A
C493        H497   1.084       .  S
C494        C495   1.396       .  A
C494        C823   1.440       .  S
C495        H498   1.085       .  S
O499       Mg501   2.147       .  S
O499       Mg507   2.161       .  S
O499        C534   1.235       .  S
C500        H539   1.081       .  S
C500        O513   1.235       .  S
C500        O537   1.269       .  A
Mg501       O530   2.163       .  S
Mg501       O545   2.297       .  S
Mg501       O541   2.264       .  S
Mg501       O512   2.297       .  S
O502       Mg544   2.161       .  S
O502       Mg527   2.148       .  S
O502        C523   1.235       .  S
O503        C534   1.269       .  A
O503       Mg527   2.297       .  S
C504        C846   1.434       .  S
C504        O506   1.270       .  A
C504        O518   1.272       .  A
O505        C533   1.269       .  A
O505       Mg507   2.297       .  S
O506       Mg538   2.265       .  S
Mg507       O513   2.147       .  S
Mg507       O521   2.266       .  S
Mg507       O509   2.297       .  S
C508       C1022   1.434       .  S
C508        O546   1.270       .  A
C508        O514   1.272       .  A
O509        C516   1.272       .  A
H510        C523   1.081       .  S
C511        H536   1.081       .  S
C511        O525   1.235       .  S
C511        O526   1.269       .  A
O512        C535   1.269       .  A
O513       Mg527   2.161       .  S
O514       Mg544   2.297       .  S
C515        C826   1.435       .  S
C515        O528   1.270       .  A
C515        O520   1.272       .  A
C516        C962   1.435       .  S
C516        O543   1.270       .  A
Mg517       O524   2.146       .  S
Mg517       O525   2.159       .  S
Mg517       O518   2.296       .  S
Mg517       O519   2.298       .  S
Mg517       O546   2.263       .  S
O519        C523   1.269       .  A
O520       Mg527   2.297       .  S
O521        C540   1.270       .  A
O522        C542   1.272       .  A
O522       Mg538   2.295       .  S
O524       Mg538   2.162       .  S
O524        C535   1.235       .  S
O525       Mg544   2.147       .  S
O526       Mg538   2.298       .  S
Mg527       O543   2.265       .  S
O528       Mg544   2.264       .  S
H529        C534   1.081       .  S
O530       Mg538   2.149       .  S
O530        C533   1.235       .  S
H531        C533   1.081       .  S
H532        C535   1.081       .  S
O537       Mg544   2.297       .  S
C540        C820   1.435       .  S
C540        O545   1.272       .  A
O541        C542   1.270       .  A
C542        C988   1.434       .  S
C547        C548   1.404       .  A
C547        C552   1.396       .  A
C547        C911   1.439       .  S
C548        C549   1.406       .  A
C548        H553   1.084       .  S
C549        C550   1.405   1_554  A
C549        C815   1.445       .  S
C550        C551   1.403       .  A
C550        H554   1.084       .  S
C551        C552   1.396   1_556  A
C551        C847   1.439       .  S
C552        H555   1.085       .  S
C556        C557   1.404       .  A
C556        C561   1.397       .  A
C556        C902   1.440       .  S
C557        C558   1.406   1_554  A
C557        H562   1.084       .  S
C558        C559   1.406       .  A
C558        C813   1.446       .  S
C559        C560   1.404       .  A
C559        H563   1.084       .  S
C560        C561   1.397   1_556  A
C560        C830   1.440       .  S
C561        H564   1.085       .  S
C565        C566   1.397       .  A
C565        C570   1.403       .  A
C565        C884   1.440       .  S
C566        C567   1.397   1_554  A
C566        H571   1.085       .  S
C567        C568   1.404       .  A
C567        C817   1.440       .  S
C568        C569   1.406   1_556  A
C568        H572   1.084       .  S
C569        C570   1.405       .  A
C569        C811   1.445       .  S
C570        H573   1.084       .  S
C574        C575   1.397       .  A
C574        C579   1.403       .  A
C574        C895   1.440       .  S
C575        C576   1.397       .  A
C575        H580   1.085       .  S
C576        C577   1.404       .  A
C576        C929   1.439       .  S
C577        C578   1.406       .  A
C577        H581   1.084       .  S
C578        C579   1.405       .  A
C578        C810   1.445       .  S
C579        H582   1.084       .  S
C583        C584   1.404       .  A
C583        C588   1.396       .  A
C583        C936   1.439       .  S
C584        C585   1.406       .  A
C584        H589   1.084       .  S
C585        C586   1.405       .  A
C585        C807   1.445       .  S
C586        C587   1.403       .  A
C586        H590   1.084       .  S
C587        C588   1.396       .  A
C587        C910   1.439       .  S
C588        H591   1.085       .  S
C592        C593   1.403       .  A
C592        C597   1.396       .  A
C592        C861   1.439       .  S
C593        C594   1.405       .  A
C593        H598   1.084       .  S
C594        C595   1.406       .  A
C594        C806   1.446       .  S
C595        C596   1.404       .  A
C595        H599   1.084       .  S
C596        C597   1.396       .  A
C596        C928   1.440       .  S
C597        H600   1.085       .  S
N601        C606   1.356       .  A
N601        C605   1.356       .  A
N601        H633   1.033       .  S
N602        C609   1.353       .  A
N602        C610   1.352       .  A
N603        C608   1.356       .  A
N603        C607   1.356       .  A
N603        H634   1.034   1_545  S
N604        C611   1.353       .  A
N604        C612   1.353       .  A
C605        C613   1.388       .  A
C605        C621   1.421   1_455  A
C606        C622   1.422       .  A
C606        C614   1.388       .  A
C607        C615   1.388       .  A
C607        C624   1.421   1_455  A
C608        C623   1.421       .  A
C608        C616   1.388       .  A
C609        C621   1.418       .  A
C609        C617   1.387       .  A
C610        C624   1.417   1_565  A
C610        C618   1.387       .  A
C611        C619   1.387       .  A
C611        C622   1.419       .  A
C612        C620   1.387       .  A
C612        C623   1.418   1_565  A
C613        C614   1.375       .  A
C613        H625   1.082       .  S
C614        H626   1.082       .  S
C615        C616   1.374       .  A
C615        H627   1.082       .  S
C616        H628   1.082       .  S
C617        C618   1.372       .  A
C617        H629   1.082       .  S
C618        H630   1.082       .  S
C619        C620   1.373       .  A
C619        H631   1.082       .  S
C620        H632   1.082       .  S
C621       C1024   1.457       .  S
C622       C1044   1.458       .  S
C623        C805   1.457       .  S
C624       C1034   1.456       .  S
N635        C640   1.356       .  A
N635        C639   1.356       .  A
N635        H667   1.034       .  S
N636        C643   1.353   1_556  A
N636        C644   1.353       .  A
N637        C642   1.356       .  A
N637        C641   1.356       .  A
N637        H668   1.034       .  S
N638        C645   1.352   1_556  A
N638        C646   1.352       .  A
C639        C647   1.388       .  A
C639        C655   1.421       .  A
C640        C656   1.421   1_565  A
C640        C648   1.388       .  A
C641        C649   1.388       .  A
C641        C658   1.421       .  A
C642        C657   1.421   1_565  A
C642        C650   1.388       .  A
C643        C655   1.418       .  A
C643        C651   1.387       .  A
C644        C658   1.418       .  A
C644        C652   1.387       .  A
C645        C653   1.387       .  A
C645        C656   1.417       .  A
C646        C654   1.387       .  A
C646        C657   1.417       .  A
C647        C648   1.374       .  A
C647        H659   1.082       .  S
C648        H660   1.082       .  S
C649        C650   1.374       .  A
C649        H661   1.082       .  S
C650        H662   1.082       .  S
C651        C652   1.373   1_554  A
C651        H663   1.082       .  S
C652        H664   1.082       .  S
C653        C654   1.372   1_554  A
C653        H665   1.082       .  S
C654        H666   1.082       .  S
C655       C1014   1.458       .  S
C656        C809   1.456       .  S
C657        C984   1.456       .  S
C658        C964   1.457       .  S
N669        C674   1.356       .  A
N669        C673   1.356       .  A
N669        H701   1.034       .  S
N670        C677   1.352       .  A
N670        C678   1.352   1_554  A
N671        C676   1.357       .  A
N671        C675   1.357       .  A
N671        H702   1.035       .  S
N672        C679   1.353   1_556  A
N672        C680   1.353       .  A
C673        C681   1.388       .  A
C673        C689   1.420   1_455  A
C674        C690   1.421       .  A
C674        C682   1.388       .  A
C675        C683   1.388       .  A
C675        C692   1.420   1_455  A
C676        C691   1.420       .  A
C676        C684   1.388       .  A
C677        C689   1.416       .  A
C677        C685   1.387       .  A
C678        C692   1.416       .  A
C678        C686   1.387       .  A
C679        C687   1.387       .  A
C679        C690   1.418       .  A
C680        C688   1.387       .  A
C680        C691   1.417       .  A
C681        C682   1.374       .  A
C681        H693   1.082       .  S
C682        H694   1.082       .  S
C683        C684   1.374       .  A
C683        H695   1.082       .  S
C684        H696   1.082       .  S
C685        C686   1.372   1_554  A
C685        H697   1.082       .  S
C686        H698   1.082       .  S
C687        C688   1.372   1_554  A
C687        H699   1.082       .  S
C688        H700   1.082       .  S
C689       C1003   1.456       .  S
C690        C808   1.457       .  S
C691        C974   1.458       .  S
C692        C994   1.456       .  S
N703        C708   1.356       .  A
N703        C707   1.356       .  A
N703        H735   1.033       .  S
N704        C711   1.352       .  A
N704        C712   1.352   1_554  A
N705        C710   1.356       .  A
N705        C709   1.356   1_556  A
N705        H736   1.034       .  S
N706        C713   1.353   1_556  A
N706        C714   1.353       .  A
C707        C715   1.388   1_554  A
C707        C723   1.421       .  A
C708        C724   1.421       .  A
C708        C716   1.388   1_554  A
C709        C717   1.388       .  A
C709        C726   1.420   1_554  A
C710        C725   1.421       .  A
C710        C718   1.388   1_556  A
C711        C723   1.417       .  A
C711        C719   1.387       .  A
C712        C726   1.417       .  A
C712        C720   1.387       .  A
C713        C721   1.387   1_554  A
C713        C724   1.418       .  A
C714        C722   1.387       .  A
C714        C725   1.418       .  A
C715        C716   1.374       .  A
C715        H727   1.082       .  S
C716        H728   1.082       .  S
C717        C718   1.374       .  A
C717        H729   1.082       .  S
C718        H730   1.082       .  S
C719        C720   1.372   1_554  A
C719        H731   1.082       .  S
C720        H732   1.082       .  S
C721        C722   1.373       .  A
C721        H733   1.082       .  S
C722        H734   1.082       .  S
C723        C812   1.457       .  S
C724        C814   1.458   1_554  S
C725        C874   1.458       .  S
C726        C816   1.456       .  S
N737        C742   1.356       .  A
N737        C741   1.356       .  A
N737        H769   1.034       .  S
N738        C745   1.353       .  A
N738        C746   1.353       .  A
N739        C744   1.356       .  A
N739        C743   1.356       .  A
N739        H770   1.033       .  S
N740        C747   1.353       .  A
N740        C748   1.353       .  A
C741        C749   1.388       .  A
C741        C757   1.421       .  A
C742        C758   1.421       .  A
C742        C750   1.388       .  A
C743        C751   1.388       .  A
C743        C760   1.421       .  A
C744        C759   1.421       .  A
C744        C752   1.388       .  A
C745        C757   1.418       .  A
C745        C753   1.387       .  A
C746        C760   1.418       .  A
C746        C754   1.387       .  A
C747        C755   1.387       .  A
C747        C758   1.418       .  A
C748        C756   1.387       .  A
C748        C759   1.418       .  A
C749        C750   1.374       .  A
C749        H761   1.082       .  S
C750        H762   1.082       .  S
C751        C752   1.375       .  A
C751        H763   1.082       .  S
C752        H764   1.082       .  S
C753        C754   1.372       .  A
C753        H765   1.082       .  S
C754        H766   1.082       .  S
C755        C756   1.373       .  A
C755        H767   1.082       .  S
C756        H768   1.082       .  S
C757        C880   1.456       .  S
C758        C842   1.457       .  S
C759        C836   1.457       .  S
C760        C946   1.457       .  S
N771        C776   1.356       .  A
N771        C775   1.357       .  A
N771        H803   1.034       .  S
N772        C779   1.353       .  A
N772        C780   1.352       .  A
N773        C778   1.357       .  A
N773        C777   1.356       .  A
N773        H804   1.035       .  S
N774        C781   1.353       .  A
N774        C782   1.353       .  A
C775        C783   1.388       .  A
C775        C791   1.420       .  A
C776        C792   1.421       .  A
C776        C784   1.388       .  A
C777        C785   1.388       .  A
C777        C794   1.420       .  A
C778        C793   1.420       .  A
C778        C786   1.388       .  A
C779        C791   1.417       .  A
C779        C787   1.387       .  A
C780        C794   1.417       .  A
C780        C788   1.387       .  A
C781        C789   1.387       .  A
C781        C792   1.418       .  A
C782        C790   1.387       .  A
C782        C793   1.417       .  A
C783        C784   1.374       .  A
C783        H795   1.082       .  S
C784        H796   1.082       .  S
C785        C786   1.374       .  A
C785        H797   1.082       .  S
C786        H798   1.082       .  S
C787        C788   1.372       .  A
C787        H799   1.082       .  S
C788        H800   1.082       .  S
C789        C790   1.372       .  A
C789        H801   1.082       .  S
C790        H802   1.082       .  S
C791        C890   1.457       .  S
C792        C822   1.457       .  S
C793        C856   1.458       .  S
C794        C919   1.456       .  S
C805        C806   1.210       .  T
C807        C808   1.210       .  T
C809        C810   1.209       .  T
C811        C812   1.210       .  T
C813        C814   1.210       .  T
C815        C816   1.209   1_554  T
C817        C818   1.206       .  T
C818        C819   1.412       .  S
C819        C820   1.206       .  T
C821        C822   1.210       .  T
C823        C824   1.206       .  T
C824        C825   1.412       .  S
C825        C826   1.206       .  T
C827        C828   1.206       .  T
C828        C829   1.412       .  S
C829        C830   1.206       .  T
C831        C832   1.206       .  T
C832        C833   1.412       .  S
C833        C834   1.206       .  T
C835        C836   1.210       .  T
C837        C838   1.206       .  T
C838        C839   1.412       .  S
C839        C840   1.206       .  T
C841        C842   1.210       .  T
C843        C844   1.206       .  T
C844        C845   1.412       .  S
C845        C846   1.206       .  T
C847        C848   1.206       .  T
C848        C849   1.412       .  S
C849        C850   1.206       .  T
C851        C852   1.205       .  T
C852        C853   1.412       .  S
C853        C854   1.205       .  T
C855        C856   1.210       .  T
C857        C858   1.206       .  T
C858        C859   1.412       .  S
C859        C860   1.206       .  T
C861        C862   1.205       .  T
C862        C863   1.412       .  S
C863        C864   1.206       .  T
C865        C866   1.206       .  T
C866        C867   1.413       .  S
C867        C868   1.206       .  T
C869        C870   1.206       .  T
C870        C871   1.413       .  S
C871        C872   1.206       .  T
C873        C874   1.210       .  T
C875        C876   1.206       .  T
C876        C877   1.412       .  S
C877        C878   1.206       .  T
C879        C880   1.209       .  T
C881        C882   1.206       .  T
C882        C883   1.412       .  S
C883        C884   1.206       .  T
C885        C886   1.206       .  T
C886        C887   1.413       .  S
C887        C888   1.206       .  T
C889        C890   1.210       .  T
C891        C892   1.206       .  T
C892        C893   1.412       .  S
C893        C894   1.206       .  T
C895        C896   1.206       .  T
C896        C897   1.413       .  S
C897        C898   1.206       .  T
C899        C900   1.206       .  T
C900        C901   1.413       .  S
C901        C902   1.206       .  T
C903        C904   1.206       .  T
C904        C905   1.412       .  S
C905        C906   1.206       .  T
C907        C908   1.206       .  T
C908        C909   1.412       .  S
C909        C910   1.206       .  T
C911        C912   1.205       .  T
C912        C913   1.412       .  S
C913        C914   1.205       .  T
C915        C916   1.205       .  T
C916        C917   1.411       .  S
C917        C918   1.205       .  T
C919        C920   1.209       .  T
C921        C922   1.206       .  T
C922        C923   1.413       .  S
C923        C924   1.206       .  T
C925        C926   1.206       .  T
C926        C927   1.412       .  S
C927        C928   1.206       .  T
C929        C930   1.206       .  T
C930        C931   1.412       .  S
C931        C932   1.206       .  T
C933        C934   1.206       .  T
C934        C935   1.412       .  S
C935        C936   1.206       .  T
C937        C938   1.206       .  T
C938        C939   1.412       .  S
C939        C940   1.206       .  T
C941        C942   1.205       .  T
C942        C943   1.411       .  S
C943        C944   1.205       .  T
C945        C946   1.210       .  T
C947        C948   1.205       .  T
C948        C949   1.411       .  S
C949        C950   1.205       .  T
C951        C952   1.206       .  T
C952        C953   1.412       .  S
C953        C954   1.206       .  T
C955        C956   1.205       .  T
C956        C957   1.412       .  S
C957        C958   1.205       .  T
C959        C960   1.206       .  T
C960        C961   1.412       .  S
C961        C962   1.206       .  T
C963        C964   1.210       .  T
C965        C966   1.206       .  T
C966        C967   1.413       .  S
C967        C968   1.206       .  T
C969        C970   1.206       .  T
C970        C971   1.413       .  S
C971        C972   1.206       .  T
C973        C974   1.210       .  T
C975        C976   1.205       .  T
C976        C977   1.411       .  S
C977        C978   1.205       .  T
C979        C980   1.206       .  T
C980        C981   1.412       .  S
C981        C982   1.206       .  T
C983        C984   1.209       .  T
C985        C986   1.206       .  T
C986        C987   1.412       .  S
C987        C988   1.206       .  T
C989        C990   1.206       .  T
C990        C991   1.413       .  S
C991        C992   1.206       .  T
C993        C994   1.209       .  T
C995        C996   1.206       .  T
C996        C997   1.412       .  S
C997        C998   1.206       .  T
C999       C1000   1.206       .  T
C1000      C1001   1.412       .  S
C1001      C1002   1.206       .  T
C1003      C1004   1.209       .  T
C1005      C1006   1.206       .  T
C1006      C1007   1.413       .  S
C1007      C1008   1.206       .  T
C1009      C1010   1.206       .  T
C1010      C1011   1.412       .  S
C1011      C1012   1.206       .  T
C1013      C1014   1.210       .  T
C1015      C1016   1.205       .  T
C1016      C1017   1.412       .  S
C1017      C1018   1.205       .  T
C1019      C1020   1.206       .  T
C1020      C1021   1.412       .  S
C1021      C1022   1.206       .  T
C1023      C1024   1.210       .  T
C1025      C1026   1.205       .  T
C1026      C1027   1.411       .  S
C1027      C1028   1.205       .  T
C1029      C1030   1.206       .  T
C1030      C1031   1.413       .  S
C1031      C1032   1.206       .  T
C1033      C1034   1.209       .  T
C1035      C1036   1.207       .  T
C1036      C1037   1.414       .  S
C1037      C1038   1.207       .  T
C1039      C1040   1.205       .  T
C1040      C1041   1.412       .  S
C1041      C1042   1.205       .  T
C1043      C1044   1.210       .  T
