geometry optimzed in LAMMPS
_audit_creation_date              2020-12-01 
_audit_creation_method            'lammps2cif' 
_symmetry_space_group_name_H-M    'P1' 
_symmetry_Int_Tables_number       1 
_symmetry_cell_setting            triclinic 
loop_ 
_symmetry_equiv_pos_as_xyz 
  x,y,z 
_cell_length_a                    35.75323299 
_cell_length_b                    34.85888810352911 
_cell_length_c                    36.402012722066985 
_cell_angle_alpha                 91.63665165911836 
_cell_angle_beta                  91.04229917834215 
_cell_angle_gamma                 90.18907958660893 
loop_ 
_atom_site_label 
_atom_site_type_symbol 
_atom_site_fract_x 
_atom_site_fract_y 
_atom_site_fract_z 
_atom_site_charge 
O1          O  0.48522137  0.50912958  0.90761885    -0.80300
O2          O  0.55664963  0.51185293  0.05771667    -0.80300
O3          O  0.43180796  0.52813338  0.01202502    -0.80300
O4          O  0.56994835  0.54939127  0.94030185    -0.80300
O5          O  0.48667179  0.53270690  0.04106223    -0.80400
O6          O  0.55869483  0.50233494  0.89965016    -0.80300
O7          O  0.56838724  0.55404183  0.01660402    -0.80300
O8          O  0.47801059  0.54958269  0.95540176    -0.80300
C9          C  0.47689525  0.54236800  0.92085619     1.09400
C10         C  0.56937470  0.54434875  0.04973305     1.09300
C11         C  0.45163103  0.54182035  0.03865980     1.09400
C12         C  0.56969958  0.53640939  0.90744477     1.09300
O13         O  0.56014345  0.43033918  0.93711337    -0.80300
O14         O  0.50025521  0.46488927  0.07219445    -0.80400
O15         O  0.44168222  0.47805137  0.95192923    -0.80300
O16         O  0.59987458  0.47568598  0.01783069    -0.80300
O17         O  0.55040038  0.43821156  0.02246107    -0.80300
O18         O  0.48332945  0.43396860  0.94351357    -0.80300
O19         O  0.60389228  0.47463708  0.94412033    -0.80300
O20         O  0.46304689  0.45863635  0.02306922    -0.80300
Co21       Co  0.52179704  0.46909016  0.92528189     1.51500
Co22       Co  0.51778527  0.48325959  0.02781519     1.51700
Co23       Co  0.47465134  0.50619588  0.98937559     1.51600
Co24       Co  0.58188495  0.51333037  0.97972758     1.51500
O25         O  0.52807265  0.49385556  0.97586563    -1.42200
C26         C  0.59367036  0.44102427  0.93340941     1.09300
C27         C  0.47154078  0.45009359  0.05679160     1.09400
C28         C  0.45039182  0.44548996  0.93839327     1.09400
C29         C  0.58499811  0.44449070  0.02825539     1.09300
O30         O  0.59225998  0.97580779  0.45173819    -0.80300
O31         O  0.57965324  0.05775188  0.51298231    -0.80300
O32         O  0.56899068  0.05585643  0.42800232    -0.80300
O33         O  0.54103968  0.97396228  0.56449777    -0.80300
O34         O  0.55532767  0.10766494  0.46112714    -0.80400
O35         O  0.58778872  0.96932052  0.52642901    -0.80300
O36         O  0.53994881  0.05139595  0.55839589    -0.80300
O37         O  0.55524953  0.98088464  0.40470671    -0.80300
C38         C  0.58583553  0.96888636  0.41813258     1.09400
C39         C  0.57123249  0.06317492  0.54635979     1.09300
C40         C  0.57395761  0.09211000  0.43569475     1.09400
C41         C  0.57432205  0.96367332  0.55765495     1.09300
O42         O  0.51940175  0.92559833  0.51612560    -0.80300
O43         O  0.49152145  0.06843043  0.44233392    -0.80400
O44         O  0.48156078  0.98082953  0.43205695    -0.80300
O45         O  0.46611577  0.04522063  0.52123890    -0.80300
O46         O  0.50662634  0.09039131  0.51264179    -0.80300
O47         O  0.52088578  0.93322481  0.44345564    -0.80300
O48         O  0.47225837  0.96564283  0.52409660    -0.80300
O49         O  0.50487409  0.03950558  0.38922680    -0.80300
Co50       Co  0.55484877  0.95421818  0.48433483     1.51500
Co51       Co  0.53783040  0.05999300  0.47739257     1.51700
Co52       Co  0.52301652  0.01821272  0.43365249     1.51600
Co53       Co  0.50539592  0.00917895  0.53842203     1.51500
O54         O  0.52888946  0.00533250  0.48757984    -1.42200
C55         C  0.48583508  0.93212708  0.52560346     1.09300
C56         C  0.48560412  0.06387050  0.40725545     1.09400
C57         C  0.48934831  0.94531135  0.43145260     1.09400
C58         C  0.47451619  0.08042606  0.52285190     1.09300
O59         O  0.98587811  0.44463634  0.44566580    -0.80300
O60         O  0.06323856  0.45302293  0.51304780    -0.80300
O61         O  0.06494954  0.47012725  0.42597234    -0.80300
O62         O  0.98197101  0.49386406  0.56334810    -0.80300
O63         O  0.11438329  0.47522236  0.46326310    -0.80400
O64         O  0.97993279  0.44768555  0.52119750    -0.80300
O65         O  0.05761313  0.49362440  0.56029222    -0.80300
O66         O  0.99435569  0.48630631  0.40345322    -0.80300
C67         C  0.98215877  0.45384839  0.41250363     1.09400
C68         C  0.06895389  0.46162295  0.54678097     1.09300
C69         C  0.09880846  0.46015237  0.43495304     1.09400
C70         C  0.97315657  0.45966859  0.55340076     1.09300
O71         O  0.93851807  0.51905108  0.51590734    -0.80300
O72         O  0.08251704  0.54309520  0.44692344    -0.80400
O73         O  0.99167418  0.56051060  0.43570956    -0.80300
O74         O  0.05786815  0.57004083  0.53011753    -0.80300
O75         O  0.09910890  0.52608123  0.51695221    -0.80300
O76         O  0.94648152  0.51786459  0.44320665    -0.80300
O77         O  0.97824274  0.56667305  0.52881266    -0.80300
O78         O  0.05215967  0.53753499  0.39322233    -0.80300
Co79       Co  0.96607671  0.48270485  0.48184427     1.51500
Co80       Co  0.06895438  0.49605273  0.47935807     1.51700
Co81       Co  0.02934541  0.51822511  0.43556731     1.51600
Co82       Co  0.01888438  0.53073133  0.54165365     1.51500
O83         O  0.01611847  0.50900738  0.48832224    -1.42200
C84         C  0.94508201  0.55336882  0.52755771     1.09300
C85         C  0.07946657  0.55110481  0.41238011     1.09400
C86         C  0.95740915  0.55032875  0.43195535     1.09400
C87         C  0.09155635  0.55864300  0.53112518     1.09300
C88         C  0.77241119  0.31777128  0.27789075     0.03000
C89         C  0.75606860  0.32876689  0.24419104    -0.13200
C90         C  0.72263257  0.31158083  0.23015804     0.00500
C91         C  0.70674359  0.28144618  0.24992445    -0.11700
C92         C  0.72158717  0.27122910  0.28421965     0.03000
C93         C  0.75395654  0.28971881  0.29801539    -0.11100
H94         H  0.76907488  0.35132111  0.22927512     0.08600
H95         H  0.68196126  0.26659570  0.23954077     0.06100
H96         H  0.76429017  0.28231542  0.32500559     0.05900
C97         C  0.76085607  0.69596915  0.29283246     0.03000
C98         C  0.74248195  0.67893684  0.26206966    -0.13200
C99         C  0.70973755  0.69496496  0.24689535     0.00500
C100        C  0.69646911  0.72982527  0.26214454    -0.11700
C101        C  0.71507269  0.74819452  0.29230967     0.03000
C102        C  0.74748889  0.73105179  0.30722499    -0.11100
H103        H  0.75359872  0.65253498  0.25038553     0.08600
H104        H  0.67046257  0.74162259  0.25189723     0.06100
H105        H  0.76164083  0.74428119  0.33092207     0.05900
C106        C  0.73257246  0.30711481  0.73248750     0.03000
C107        C  0.71310796  0.27799622  0.71272218    -0.13200
C108        C  0.72398413  0.26613005  0.67725225     0.00500
C109        C  0.75486875  0.28392175  0.66137950    -0.11700
C110        C  0.77538253  0.31264429  0.68090145     0.03000
C111        C  0.76476574  0.32280613  0.71691211    -0.11100
H112        H  0.68854314  0.26531265  0.72439503     0.08600
H113        H  0.76183638  0.27649132  0.63325627     0.06100
H114        H  0.78127896  0.34373740  0.73265390     0.05900
C115        C  0.34160341  0.73862839  0.30005800     0.03000
C116        C  0.30955243  0.72243330  0.31509645    -0.13200
C117        C  0.29208739  0.69012213  0.29833651     0.00500
C118        C  0.30741285  0.67392088  0.26612723    -0.11700
C119        C  0.33970539  0.68956665  0.25054016     0.03000
C120        C  0.35634437  0.72239458  0.26761614    -0.11100
H121        H  0.29823624  0.73517157  0.34000667     0.08600
H122        H  0.29506195  0.64797104  0.25410821     0.06100
H123        H  0.38121536  0.73488981  0.25623216     0.05900
C124        C  0.35560410  0.68595952  0.71781211     0.03000
C125        C  0.37241160  0.71714367  0.70089223    -0.13200
C126        C  0.35526863  0.73423791  0.67047656     0.00500
C127        C  0.32073210  0.71988438  0.65688747    -0.11700
C128        C  0.30394358  0.68783652  0.67252435     0.03000
C129        C  0.32139126  0.67131821  0.70338298    -0.11100
H130        H  0.39899913  0.72817601  0.71145598     0.08600
H131        H  0.30817292  0.73205110  0.63254718     0.06100
H132        H  0.30890873  0.64640764  0.71549318     0.05900
C133        C  0.32212850  0.31581268  0.72141687     0.03000
C134        C  0.28814350  0.33005344  0.70739208    -0.13200
C135        C  0.27354776  0.31747886  0.67292327     0.00500
C136        C  0.29197548  0.28768436  0.65373429    -0.11700
C137        C  0.32515209  0.27194419  0.66785104     0.03000
C138        C  0.34033878  0.28640310  0.70144631    -0.11100
H139        H  0.27332307  0.35173569  0.72318818     0.08600
H140        H  0.28191943  0.27812153  0.62674903     0.06100
H141        H  0.36693723  0.27555236  0.71129043     0.05900
C142        C  0.69743669  0.68630777  0.71521756     0.03000
C143        C  0.72860474  0.67132294  0.69662273    -0.13200
C144        C  0.74289350  0.68931026  0.66583089     0.00500
C145        C  0.72707283  0.72391277  0.65457856    -0.11700
C146        C  0.69657169  0.74015810  0.67325390     0.03000
C147        C  0.68195668  0.72101306  0.70335754    -0.11100
H148        H  0.74187654  0.64531305  0.70570286     0.08600
H149        H  0.73748979  0.73719912  0.63022415     0.06100
H150        H  0.65788119  0.73292859  0.71701710     0.05900
C151        C  0.32047250  0.25122665  0.28081578     0.03000
C152        C  0.33675149  0.26781756  0.25018043    -0.13200
C153        C  0.32310396  0.30246845  0.23604759     0.00500
C154        C  0.29171623  0.31988150  0.25251125    -0.11700
C155        C  0.27492012  0.30344313  0.28309943     0.03000
C156        C  0.28893975  0.26871155  0.29622797    -0.11100
H157        H  0.36134039  0.25468116  0.23838338     0.08600
H158        H  0.28203251  0.34744973  0.24325321     0.06100
H159        H  0.27597626  0.25597221  0.31965678     0.05900
C160        C  0.17361337  0.45692091  0.63547187    -0.18000
C161        C  0.20309182  0.43717823  0.65201821    -0.20100
C162        C  0.20728530  0.39755802  0.64550601     0.20500
C163        C  0.18169426  0.37764747  0.62192982    -0.03100
C164        C  0.15224538  0.39770605  0.60472300    -0.06100
C165        C  0.14809594  0.43743696  0.61182259     0.20800
C166        C  0.12739078  0.37816967  0.57998649     0.18900
C167        C  0.13179099  0.33858374  0.57337907    -0.17600
C168        C  0.16055991  0.31855939  0.59100855    -0.19800
C169        C  0.18578389  0.33784064  0.61518444     0.20400
C170        C  0.21515605  0.31810139  0.63248351    -0.32800
C171        C  0.24110903  0.33778726  0.65585639     0.01100
C172        C  0.23690977  0.37768119  0.66186923    -0.24200
C173        C  0.11909168  0.45723710  0.59443763    -0.28800
C174        C  0.09491910  0.43832229  0.56886320     0.06800
C175        C  0.09915281  0.39873672  0.56176447    -0.27400
H176        H  0.17100128  0.48752594  0.64086954     0.11500
H177        H  0.22260713  0.45290889  0.66995441     0.12700
H178        H  0.11301510  0.32310060  0.55450789     0.11700
H179        H  0.16331597  0.28801477  0.58541994     0.11000
H180        H  0.21771397  0.28741410  0.62772835     0.16400
H181        H  0.25716639  0.39365205  0.67874794     0.12300
H182        H  0.11653745  0.48792906  0.59945261     0.15100
H183        H  0.08081938  0.38415962  0.54180988     0.14900
C184        C  0.24489319  0.57351469  0.61257383    -0.18000
C185        C  0.21575664  0.55604530  0.59208051    -0.20100
C186        C  0.18377536  0.57698976  0.58236186     0.20500
C187        C  0.18090303  0.61584855  0.59360086    -0.03100
C188        C  0.21063539  0.63368043  0.61407367    -0.06100
C189        C  0.24269758  0.61230106  0.62362496     0.20800
C190        C  0.20843491  0.67283767  0.62470836     0.18900
C191        C  0.17607638  0.69351963  0.61538126    -0.17600
C192        C  0.14634780  0.67566653  0.59561106    -0.19800
C193        C  0.14846587  0.63683192  0.58430929     0.20400
C194        C  0.11895456  0.61859396  0.56388514    -0.32800
C195        C  0.12201652  0.57984502  0.55201853     0.01100
C196        C  0.15471430  0.55954198  0.56157679    -0.24200
C197        C  0.27220917  0.63005338  0.64371852    -0.28800
C198        C  0.27073032  0.66920129  0.65393394     0.06800
C199        C  0.23871576  0.69051730  0.64418218    -0.27400
H200        H  0.26928732  0.55668670  0.61962528     0.11500
H201        H  0.21825030  0.52606843  0.58380305     0.12700
H202        H  0.17373319  0.72357657  0.62339060     0.11700
H203        H  0.12178477  0.69236786  0.58890440     0.11000
H204        H  0.09393298  0.63452389  0.55702387     0.16400
H205        H  0.15747121  0.52957898  0.55329049     0.12300
H206        H  0.29697531  0.61363651  0.65051552     0.15100
H207        H  0.23742143  0.72075704  0.65183738     0.14900
C208        C  0.16816448  0.62572776  0.28747810    -0.18000
C209        C  0.13827486  0.60661579  0.30340569    -0.20100
C210        C  0.13773317  0.60149561  0.34151454     0.20500
C211        C  0.16748814  0.61616814  0.36381177    -0.03100
C212        C  0.19766963  0.63546652  0.34772569    -0.06100
C213        C  0.19811857  0.64002749  0.30933748     0.20800
C214        C  0.22761249  0.64969247  0.37000798     0.18900
C215        C  0.22699622  0.64480477  0.40813446    -0.17600
C216        C  0.19718540  0.62562902  0.42404223    -0.19800
C217        C  0.16740483  0.61106241  0.40211379     0.20400
C218        C  0.13790893  0.59092726  0.41778057    -0.32800
C219        C  0.10834340  0.57562479  0.39574196     0.01100
C220        C  0.10833072  0.58140926  0.35760714    -0.24200
C221        C  0.22869151  0.65835246  0.29345813    -0.28800
C222        C  0.25895112  0.67218546  0.31541303     0.06800
C223        C  0.25792332  0.66799189  0.35375960    -0.27400
H224        H  0.16799923  0.62903384  0.25796542     0.11500
H225        H  0.11569324  0.59556562  0.28585113     0.12700
H226        H  0.24975051  0.65555493  0.42565221     0.11700
H227        H  0.19755488  0.62194941  0.45350451     0.11000
H228        H  0.13842170  0.58654469  0.44715387     0.16400
H229        H  0.08592862  0.56950496  0.34030827     0.12300
H230        H  0.22896156  0.66185809  0.26396653     0.15100
H231        H  0.28124217  0.67805537  0.37092265     0.14900
C232        C  0.23030440  0.35080188  0.40324383    -0.18000
C233        C  0.20503023  0.37158422  0.42471467    -0.20100
C234        C  0.17392611  0.38910983  0.40832604     0.20500
C235        C  0.16752841  0.38471835  0.37006951    -0.03100
C236        C  0.19324425  0.36386101  0.34829770    -0.06100
C237        C  0.22491657  0.34723707  0.36503476     0.20800
C238        C  0.18778924  0.36044937  0.30980401     0.18900
C239        C  0.15590290  0.37697453  0.29368908    -0.17600
C240        C  0.13029362  0.39754000  0.31531549    -0.19800
C241        C  0.13612550  0.40212295  0.35347253     0.20400
C242        C  0.11207215  0.42497740  0.37513094    -0.32800
C243        C  0.11966447  0.43117307  0.41294614     0.01100
C244        C  0.15000045  0.41216514  0.42940456    -0.24200
C245        C  0.25101461  0.32776537  0.34331908    -0.28800
C246        C  0.24623373  0.32444867  0.30489738     0.06800
C247        C  0.21450386  0.34094691  0.28823110    -0.27400
H248        H  0.25441630  0.33798891  0.41648149     0.11500
H249        H  0.21019239  0.37454513  0.45408626     0.12700
H250        H  0.15101099  0.37443304  0.26426249     0.11700
H251        H  0.10628945  0.41051939  0.30206518     0.11000
H252        H  0.08872556  0.43952487  0.36226926     0.16400
H253        H  0.15575067  0.41633926  0.45860665     0.12300
H254        H  0.27563189  0.31566591  0.35635612     0.15100
H255        H  0.21053836  0.33832455  0.25867724     0.14900
C256        C  0.86525530  0.69185096  0.60367770    -0.18000
C257        C  0.89345373  0.67298452  0.58402648    -0.20100
C258        C  0.88950155  0.63412965  0.57334144     0.20500
C259        C  0.85662661  0.61420535  0.58241832    -0.03100
C260        C  0.82840190  0.63308800  0.60264390    -0.06100
C261        C  0.83270721  0.67213987  0.61328779     0.20800
C262        C  0.79605387  0.61275226  0.61248994     0.18900
C263        C  0.79187171  0.57402648  0.60159223    -0.17600
C264        C  0.81964576  0.55544373  0.58133104    -0.19800
C265        C  0.85213951  0.57523219  0.57177118     0.20400
C266        C  0.88052042  0.55641111  0.55241895    -0.32800
C267        C  0.91391414  0.57561512  0.54404408     0.01100
C268        C  0.91806019  0.61465966  0.55437137    -0.24200
C269        C  0.80454950  0.69062150  0.63359254    -0.28800
C270        C  0.77256060  0.67027614  0.64397724     0.06800
C271        C  0.76852997  0.63139676  0.63322626    -0.27400
H272        H  0.86906210  0.72181391  0.61163964     0.11500
H273        H  0.91844722  0.68877172  0.57731090     0.12700
H274        H  0.76717188  0.55804835  0.60887800     0.11700
H275        H  0.81587033  0.52545000  0.57343658     0.11000
H276        H  0.87704315  0.52623847  0.54504379     0.16400
H277        H  0.94366421  0.62969067  0.54817548     0.12300
H278        H  0.80776573  0.72057204  0.64191722     0.15100
H279        H  0.74366541  0.61576535  0.64074060     0.14900
C280        C  0.91026070  0.33699141  0.57817471    -0.18000
C281        C  0.88186935  0.31668653  0.59520868    -0.20100
C282        C  0.85869539  0.33519352  0.62084393     0.20500
C283        C  0.86432111  0.37453672  0.62949516    -0.03100
C284        C  0.89328563  0.39492373  0.61265594    -0.06100
C285        C  0.91618802  0.37608941  0.58668100     0.20800
C286        C  0.89885954  0.43427978  0.62132029     0.18900
C287        C  0.87536394  0.45293888  0.64654637    -0.17600
C288        C  0.84649702  0.43282033  0.66298724    -0.19800
C289        C  0.84079441  0.39363235  0.65467128     0.20400
C290        C  0.81182788  0.37332769  0.67096137    -0.32800
C291        C  0.80632820  0.33380991  0.66314039     0.01100
C292        C  0.83000933  0.31504392  0.63790941    -0.24200
C293        C  0.94386586  0.39692472  0.56889935    -0.28800
C294        C  0.94909935  0.43633877  0.57684980     0.06800
C295        C  0.92701723  0.45458073  0.60373999    -0.27400
H296        H  0.92750154  0.32212235  0.55819757     0.11500
H297        H  0.87787571  0.28653564  0.58813720     0.12700
H298        H  0.87907192  0.48321020  0.65329240     0.11700
H299        H  0.82861059  0.44793074  0.68221270     0.11000
H300        H  0.79324026  0.38858657  0.68940175     0.16400
H301        H  0.82641974  0.28465361  0.63176441     0.12300
H302        H  0.96058235  0.38273662  0.54803225     0.15100
H303        H  0.93032918  0.48509529  0.60956093     0.14900
C304        C  0.88894854  0.44866891  0.31110899    -0.18000
C305        C  0.85855469  0.43030306  0.29320819    -0.20100
C306        C  0.84907252  0.39237921  0.30131654     0.20500
C307        C  0.87110072  0.37250173  0.32702540    -0.03100
C308        C  0.90133832  0.39128640  0.34567212    -0.06100
C309        C  0.91011743  0.42963056  0.33782052     0.20800
C310        C  0.92188968  0.37213354  0.37307684     0.18900
C311        C  0.91313909  0.33384042  0.38032068    -0.17600
C312        C  0.88385994  0.31493721  0.36114998    -0.19800
C313        C  0.86229066  0.33423172  0.33491204     0.20400
C314        C  0.83151222  0.31615018  0.31721077    -0.32800
C315        C  0.80770637  0.33631472  0.29314245     0.01100
C316        C  0.81729540  0.37448859  0.28505855    -0.24200
C317        C  0.93880093  0.44879867  0.35790588    -0.28800
C318        C  0.95801509  0.43063851  0.38670692     0.06800
C319        C  0.94983074  0.39203354  0.39364970    -0.27400
H320        H  0.89529014  0.47813522  0.30474550     0.11500
H321        H  0.84214026  0.44597316  0.27335805     0.12700
H322        H  0.92866768  0.31861763  0.40115172     0.11700
H323        H  0.87746161  0.28549929  0.36754718     0.11000
H324        H  0.82594247  0.28636974  0.32281646     0.16400
H325        H  0.79951742  0.39105846  0.26718038     0.12300
H326        H  0.94448036  0.47870385  0.35266474     0.15100
H327        H  0.96439865  0.37787487  0.41582884     0.14900
C328        C  0.80860784  0.57672733  0.34660525    -0.18000
C329        C  0.83569999  0.55681821  0.36653752    -0.20100
C330        C  0.86880213  0.57526620  0.37876379     0.20500
C331        C  0.87488531  0.61402195  0.37062536    -0.03100
C332        C  0.84730987  0.63427297  0.35065810    -0.06100
C333        C  0.81405699  0.61547095  0.33866093     0.20800
C334        C  0.85286177  0.67331770  0.34298127     0.18900
C335        C  0.88631594  0.69145052  0.35477579    -0.17600
C336        C  0.91382116  0.67125567  0.37422657    -0.19800
C337        C  0.90838304  0.63254278  0.38253367     0.20400
C338        C  0.93566730  0.61206277  0.40255276    -0.32800
C339        C  0.92946978  0.57345280  0.41122062     0.01100
C340        C  0.89584005  0.55548410  0.39900140    -0.24200
C341        C  0.78662287  0.63576760  0.31928258    -0.28800
C342        C  0.79148642  0.67489462  0.31195097     0.06800
C343        C  0.82478153  0.69350048  0.32392621    -0.27400
H344        H  0.78325457  0.56185262  0.33757963     0.11500
H345        H  0.83072709  0.52695967  0.37245323     0.12700
H346        H  0.89119864  0.72135905  0.34903269     0.11700
H347        H  0.93928778  0.68603703  0.38299410     0.11000
H348        H  0.96141196  0.62617491  0.41158457     0.16400
H349        H  0.89069835  0.52561993  0.40483841     0.12300
H350        H  0.76089788  0.62129444  0.31065619     0.15100
H351        H  0.82885216  0.72356318  0.31824192     0.14900
C352        C  0.71566472  0.14965681  0.59584258    -0.18000
C353        C  0.69440862  0.12028443  0.57861310    -0.20100
C354        C  0.65547603  0.11893636  0.58278490     0.20500
C355        C  0.63777158  0.14753711  0.60443687    -0.03100
C356        C  0.65910878  0.17752895  0.62120609    -0.06100
C357        C  0.69830253  0.17842703  0.61717305     0.20800
C358        C  0.64118320  0.20660886  0.64197294     0.18900
C359        C  0.60222414  0.20558340  0.64582488    -0.17600
C360        C  0.58114029  0.17562246  0.62961991    -0.19800
C361        C  0.59865606  0.14646012  0.60900303     0.20400
C362        C  0.57757891  0.11683709  0.59203062    -0.32800
C363        C  0.59484789  0.08907242  0.56943680     0.01100
C364        C  0.63379116  0.09008313  0.56502864    -0.24200
C365        C  0.71938714  0.20779256  0.63492934    -0.28800
C366        C  0.70171537  0.23643656  0.65637198     0.06800
C367        C  0.66248373  0.23605166  0.65890769    -0.27400
H368        H  0.74571223  0.14993317  0.59238736     0.11500
H369        H  0.70842001  0.09859475  0.56204562     0.12700
H370        H  0.58808919  0.22780372  0.66161664     0.11700
H371        H  0.55108947  0.17538807  0.63302693     0.11000
H372        H  0.54740396  0.11665849  0.59467049     0.16400
H373        H  0.64700288  0.06886131  0.54723452     0.12300
H374        H  0.74960365  0.20780235  0.63281203     0.15100
H375        H  0.64843196  0.25860186  0.67434218     0.14900
C376        C  0.43748511  0.23612156  0.59868471    -0.18000
C377        C  0.45761583  0.20987720  0.57719540    -0.20100
C378        C  0.44258809  0.17355706  0.56802535     0.20500
C379        C  0.40662600  0.16371900  0.58004710    -0.03100
C380        C  0.38606285  0.19045201  0.60145481    -0.06100
C381        C  0.40185965  0.22661269  0.61116928     0.20800
C382        C  0.34997820  0.18088411  0.61347890     0.18900
C383        C  0.33487381  0.14460641  0.60394332    -0.17600
C384        C  0.35553685  0.11785583  0.58321210    -0.19800
C385        C  0.39155967  0.12701738  0.57125756     0.20400
C386        C  0.41313299  0.09997913  0.55142529    -0.32800
C387        C  0.44940913  0.10947655  0.54000014     0.01100
C388        C  0.46340953  0.14665761  0.54783881    -0.24200
C389        C  0.38190470  0.25259332  0.63334529    -0.28800
C390        C  0.34601670  0.24337988  0.64540418     0.06800
C391        C  0.32991714  0.20768446  0.63501324    -0.27400
H392        H  0.44989895  0.26382748  0.60573908     0.11500
H393        H  0.48523477  0.21780607  0.56815882     0.12700
H394        H  0.30721347  0.13673345  0.61289186     0.11700
H395        H  0.34341471  0.08990717  0.57670803     0.11000
H396        H  0.40205086  0.07143729  0.54557994     0.16400
H397        H  0.49132802  0.15436649  0.53941035     0.12300
H398        H  0.39404483  0.28033853  0.64089825     0.15100
H399        H  0.30209594  0.20067605  0.64418265     0.14900
C400        C  0.36820410  0.19333101  0.39480790    -0.18000
C401        C  0.39138563  0.16714142  0.41254489    -0.20100
C402        C  0.41049739  0.13885632  0.39217243     0.20500
C403        C  0.40517766  0.13607167  0.35368244    -0.03100
C404        C  0.38168944  0.16250501  0.33576319    -0.06100
C405        C  0.36367786  0.19163365  0.35640613     0.20800
C406        C  0.37730846  0.16060402  0.29713222     0.18900
C407        C  0.39536260  0.13140535  0.27694607    -0.17600
C408        C  0.41864009  0.10521920  0.29469533    -0.19800
C409        C  0.42428318  0.10772369  0.33296295     0.20400
C410        C  0.44956646  0.08322810  0.35069851    -0.32800
C411        C  0.45615384  0.08684548  0.38889594     0.01100
C412        C  0.43574348  0.11417060  0.40949691    -0.24200
C413        C  0.34257682  0.21941202  0.33825861    -0.28800
C414        C  0.33914049  0.21872141  0.29959682     0.06800
C415        C  0.35597910  0.18862190  0.27930886    -0.27400
H416        H  0.35439473  0.21541018  0.41107876     0.11500
H417        H  0.39499364  0.16953378  0.44214938     0.12700
H418        H  0.39212755  0.12931652  0.24730617     0.11700
H419        H  0.43285934  0.08347617  0.27836885     0.11000
H420        H  0.46490713  0.06213252  0.33459731     0.16400
H421        H  0.44031297  0.11710351  0.43897667     0.12300
H422        H  0.33031748  0.24268497  0.35426815     0.15100
H423        H  0.35313537  0.18747283  0.24960662     0.14900
C424        C  0.64444490  0.21296802  0.42327780    -0.18000
C425        C  0.66448332  0.23824668  0.40179782    -0.20100
C426        C  0.67413743  0.22763861  0.36572548     0.20500
C427        C  0.66415989  0.19091099  0.35137200    -0.03100
C428        C  0.64429214  0.16518337  0.37324954    -0.06100
C429        C  0.63392761  0.17654515  0.40914956     0.20800
C430        C  0.63406229  0.12849079  0.35890655     0.18900
C431        C  0.64427142  0.11772568  0.32301259    -0.17600
C432        C  0.66364775  0.14334868  0.30121051    -0.19800
C433        C  0.67342385  0.18014450  0.31497065     0.20400
C434        C  0.69198040  0.20647500  0.29295244    -0.32800
C435        C  0.70196499  0.24313741  0.30715120     0.01100
C436        C  0.69317613  0.25332016  0.34365113    -0.24200
C437        C  0.61231003  0.15175848  0.42989730    -0.28800
C438        C  0.60095966  0.11557038  0.41541044     0.06800
C439        C  0.61281681  0.10373245  0.38024577    -0.27400
H440        H  0.63680916  0.22208870  0.45084149     0.11500
H441        H  0.67200710  0.26630819  0.41324013     0.12700
H442        H  0.63672421  0.08967034  0.31155863     0.11700
H443        H  0.67071411  0.13447861  0.27343483     0.11000
H444        H  0.69896393  0.19842010  0.26492868     0.16400
H445        H  0.70054764  0.28164699  0.35460713     0.12300
H446        H  0.60354551  0.16106074  0.45708097     0.15100
H447        H  0.60407438  0.07599957  0.36882865     0.14900
C448        C  0.46735213  0.78072107  0.60791125    -0.18000
C449        C  0.48476613  0.80724180  0.58566922    -0.20100
C450        C  0.46573622  0.84031840  0.57480598     0.20500
C451        C  0.42887741  0.84686697  0.58656412    -0.03100
C452        C  0.41116966  0.81992353  0.60875767    -0.06100
C453        C  0.43050331  0.78666895  0.61938013     0.20800
C454        C  0.37403963  0.82610050  0.62002200     0.18900
C455        C  0.35534757  0.85959593  0.60977048    -0.17600
C456        C  0.37307875  0.88654178  0.58817100    -0.19800
C457        C  0.40972713  0.88034983  0.57623753     0.20400
C458        C  0.42776708  0.90736213  0.55474086    -0.32800
C459        C  0.46471905  0.90131674  0.54337253     0.01100
C460        C  0.48321692  0.86730747  0.55301005    -0.24200
C461        C  0.41240787  0.75957944  0.64066026    -0.28800
C462        C  0.37498320  0.76486827  0.65090188     0.06800
C463        C  0.35609729  0.79839293  0.64081596    -0.27400
H464        H  0.48261087  0.75538917  0.61589952     0.11500
H465        H  0.51319905  0.80195956  0.57709063     0.12700
H466        H  0.32692164  0.86489435  0.61834925     0.11700
H467        H  0.35805304  0.91218732  0.58067617     0.11000
H468        H  0.41336063  0.93352599  0.54766656     0.16400
H469        H  0.51185130  0.86244741  0.54480503     0.12300
H470        H  0.42698221  0.73363897  0.64815279     0.15100
H471        H  0.32736549  0.80270148  0.64898180     0.14900
C472        C  0.68923045  0.89972435  0.60180596    -0.18000
C473        C  0.70614963  0.86778362  0.61748285    -0.20100
C474        C  0.68428061  0.83892659  0.63265591     0.20500
C475        C  0.64505182  0.84296377  0.63326995    -0.03100
C476        C  0.62803862  0.87560401  0.61818689    -0.06100
C477        C  0.65017650  0.90365343  0.60152519     0.20800
C478        C  0.58879332  0.87943756  0.61858157     0.18900
C479        C  0.56692710  0.85094000  0.63431927    -0.17600
C480        C  0.58372294  0.81828288  0.64863088    -0.19800
C481        C  0.62272561  0.81389648  0.64796103     0.21100
C482        C  0.63967674  0.78059437  0.66100717    -0.32800
C483        C  0.67883564  0.77610343  0.66028806     0.01100
C484        C  0.70091043  0.80579444  0.64653220    -0.24200
C485        C  0.63276551  0.93414612  0.58349582    -0.28800
C486        C  0.59359781  0.93739634  0.58284402     0.06800
C487        C  0.57195755  0.91074643  0.60168263    -0.27400
H488        H  0.70667685  0.92106997  0.58938060     0.11500
H489        H  0.73632907  0.86521008  0.61695477     0.12700
H490        H  0.53674061  0.85350343  0.63481072     0.11700
H491        H  0.56617198  0.79629363  0.65990672     0.11000
H492        H  0.62216634  0.75777528  0.67082275     0.16400
H493        H  0.73109106  0.80303408  0.64638353     0.12300
H494        H  0.64949303  0.95452161  0.56888545     0.15100
H495        H  0.54168726  0.91271065  0.60082073     0.14900
C496        C  0.66565358  0.85469922  0.42201645    -0.18000
C497        C  0.68252379  0.82311929  0.40468331    -0.20100
C498        C  0.68245849  0.81943017  0.36621308     0.20500
C499        C  0.66530657  0.84792772  0.34495413    -0.03100
C500        C  0.64774485  0.87964027  0.36251350    -0.06100
C501        C  0.64803665  0.88293479  0.40119522     0.20800
C502        C  0.62921636  0.90750603  0.34146097     0.18900
C503        C  0.62964088  0.90395150  0.30292576    -0.17600
C504        C  0.64756185  0.87281762  0.28550332    -0.19800
C505        C  0.66510083  0.84437868  0.30625726     0.20400
C506        C  0.68199064  0.81225022  0.28910426    -0.32800
C507        C  0.69879199  0.78336870  0.31018307     0.01100
C508        C  0.69881015  0.78742229  0.34877844    -0.24200
C509        C  0.62973954  0.91372699  0.41855048    -0.28800
C510        C  0.60971221  0.94078327  0.39804417     0.06800
C511        C  0.60983356  0.93770559  0.35937691    -0.27400
H512        H  0.66592152  0.85675386  0.45177860     0.11500
H513        H  0.69552923  0.80147957  0.42140859     0.12700
H514        H  0.61580705  0.92508263  0.28622696     0.11700
H515        H  0.64721359  0.87068900  0.25574892     0.11000
H516        H  0.68197200  0.80968024  0.25936544     0.16400
H517        H  0.71078046  0.76513765  0.36543945     0.12300
H518        H  0.62947367  0.91542013  0.44833605     0.15100
H519        H  0.59442013  0.95833225  0.34337469     0.14900
C520        C  0.40913658  0.90196650  0.32636403    -0.18000
C521        C  0.38965989  0.87247085  0.30722256    -0.20100
C522        C  0.38475026  0.83657049  0.32305592     0.20500
C523        C  0.39903855  0.83063215  0.35888237    -0.03100
C524        C  0.41923893  0.86015151  0.37793499    -0.06100
C525        C  0.42442968  0.89596015  0.36153476     0.20800
C526        C  0.43499031  0.85347621  0.41302465     0.18900
C527        C  0.42910694  0.81806863  0.42939925    -0.17600
C528        C  0.40846878  0.78913333  0.41085231    -0.19800
C529        C  0.39378103  0.79493706  0.37543772     0.20400
C530        C  0.37443368  0.76545982  0.35609959    -0.32800
C531        C  0.36106702  0.77073670  0.32006608     0.01100
C532        C  0.36622036  0.80636185  0.30365783    -0.24200
C533        C  0.44572054  0.92465805  0.38016368    -0.28800
C534        C  0.46290018  0.91737091  0.41429470     0.06800
C535        C  0.45713919  0.88193656  0.43072154    -0.27400
H536        H  0.41281753  0.92926555  0.31337858     0.11500
H537        H  0.37866904  0.87766249  0.27987954     0.12700
H538        H  0.44077010  0.81262619  0.45642557     0.11700
H539        H  0.40454583  0.76193273  0.42397339     0.11000
H540        H  0.37044985  0.73796819  0.36871830     0.16400
H541        H  0.35555996  0.81053788  0.27598873     0.12300
H542        H  0.45047191  0.95191571  0.36736988     0.15100
H543        H  0.47028205  0.87643174  0.45712328     0.14900
C544        C  0.70441960  0.40531940  0.08727069    -0.18000
C545        C  0.72357110  0.38642146  0.11535442    -0.20100
C546        C  0.70397223  0.36456881  0.14058598     0.20500
C547        C  0.66476942  0.36125594  0.13703985    -0.03100
C548        C  0.64552224  0.37950753  0.10811934    -0.06100
C549        C  0.66537794  0.40212109  0.08342880     0.20800
C550        C  0.60632078  0.37580129  0.10445195     0.18900
C551        C  0.58669923  0.35411212  0.12970296    -0.17600
C552        C  0.60565166  0.33679722  0.15877356    -0.19800
C553        C  0.64466743  0.34031756  0.16276271     0.20400
C554        C  0.66368536  0.32399792  0.19253983    -0.32800
C555        C  0.70301045  0.32689423  0.19661990     0.01100
C556        C  0.72285963  0.34659179  0.16961845    -0.24200
C557        C  0.64573241  0.42191934  0.05603765    -0.28800
C558        C  0.60652244  0.41881724  0.05259868     0.06800
C559        C  0.58723980  0.39484175  0.07637656    -0.27400
H560        H  0.72016146  0.42257105  0.06862456     0.11500
H561        H  0.75368991  0.38945675  0.11772179     0.12700
H562        H  0.55657488  0.35106974  0.12732134     0.11700
H563        H  0.58974439  0.32074680  0.17823919     0.11000
H564        H  0.64731136  0.31015271  0.21308538     0.16400
H565        H  0.75304966  0.34844542  0.17109481     0.12300
H566        H  0.66082942  0.44047841  0.03801022     0.15100
H567        H  0.55702454  0.39259976  0.07434952     0.14900
C568        C  0.60789804  0.67013852  0.10673166    -0.18000
C569        C  0.62753260  0.69110078  0.13438990    -0.20100
C570        C  0.64776660  0.67216288  0.16189951     0.20500
C571        C  0.64785059  0.63168392  0.16162653    -0.03100
C572        C  0.62800987  0.61055654  0.13382855    -0.06100
C573        C  0.60808327  0.62982799  0.10605223     0.20800
C574        C  0.62823981  0.57009546  0.13383900     0.18900
C575        C  0.64834394  0.55106405  0.16122548    -0.17600
C576        C  0.66788894  0.57194830  0.18869677    -0.19800
C577        C  0.66775498  0.61219574  0.18915594     0.20400
C578        C  0.68721096  0.63313205  0.21678876    -0.32800
C579        C  0.68813908  0.67355874  0.21716477     0.01100
C580        C  0.66805462  0.69286850  0.18953292    -0.24200
C581        C  0.58887027  0.60836799  0.07818794    -0.28800
C582        C  0.58880007  0.56801556  0.07849778     0.06800
C583        C  0.60844135  0.54923127  0.10646062    -0.27400
H584        H  0.59263736  0.68547950  0.08580669     0.11500
H585        H  0.62698416  0.72216590  0.13418861     0.12700
H586        H  0.64889844  0.51999072  0.16143675     0.11700
H587        H  0.68317264  0.55658721  0.20959936     0.11000
H588        H  0.70125789  0.61765776  0.23839292     0.16400
H589        H  0.66856803  0.72392899  0.18918570     0.12300
H590        H  0.57370254  0.62290682  0.05664080     0.15100
H591        H  0.60890275  0.51811355  0.10650327     0.14900
C592        C  0.32608325  0.61746912  0.13140535    -0.18000
C593        C  0.34162559  0.59721346  0.10165960    -0.20100
C594        C  0.38055162  0.59326363  0.09903936     0.20500
C595        C  0.40404295  0.60999340  0.12673729    -0.03100
C596        C  0.38831808  0.63047937  0.15682293    -0.06100
C597        C  0.34914831  0.63415210  0.15915155     0.20800
C598        C  0.41175085  0.64695159  0.18467993     0.18900
C599        C  0.45070053  0.64284484  0.18215294    -0.17600
C600        C  0.46626748  0.62250714  0.15242332    -0.19800
C601        C  0.44318764  0.60589638  0.12461534     0.20400
C602        C  0.45852273  0.58476313  0.09507632    -0.32800
C603        C  0.43528288  0.56756387  0.06746146     0.01100
C604        C  0.39629360  0.57235382  0.06955207    -0.24200
C605        C  0.33366323  0.65413085  0.18928389    -0.28800
C606        C  0.35668498  0.67037971  0.21752853     0.06800
C607        C  0.39583759  0.66678408  0.21476407    -0.27400
H608        H  0.29593544  0.61993402  0.13278924     0.11500
H609        H  0.32314391  0.58446826  0.08075091     0.12700
H610        H  0.46915604  0.65522628  0.20328067     0.11700
H611        H  0.49639654  0.61961584  0.15127527     0.11000
H612        H  0.48859452  0.58114988  0.09398939     0.16400
H613        H  0.37808917  0.55891506  0.04877676     0.12300
H614        H  0.30355124  0.65706021  0.19070506     0.15100
H615        H  0.41394680  0.67853470  0.23649745     0.14900
C616        C  0.46459600  0.36100661  0.15848450    -0.18000
C617        C  0.44386886  0.34135399  0.18416841    -0.20100
C618        C  0.40464522  0.34109280  0.18209097     0.20500
C619        C  0.38607312  0.36027563  0.15348884    -0.03100
C620        C  0.40706881  0.38000547  0.12733571    -0.06100
C621        C  0.44645820  0.38066006  0.13021793     0.20800
C622        C  0.38868675  0.39984090  0.09894228     0.18900
C623        C  0.34941004  0.39927853  0.09684632    -0.17600
C624        C  0.32859068  0.37978367  0.12284752    -0.19800
C625        C  0.34660763  0.36038663  0.15146631     0.20400
C626        C  0.32598008  0.34142019  0.17825753    -0.32800
C627        C  0.34438176  0.32222300  0.20697667     0.01100
C628        C  0.38379473  0.32241123  0.20850776    -0.24200
C629        C  0.46707457  0.40201393  0.10560680    -0.28800
C630        C  0.44910178  0.42285625  0.07790095     0.06800
C631        C  0.40989403  0.42086920  0.07404642    -0.27400
H632        H  0.49482996  0.36127431  0.16105295     0.11500
H633        H  0.45854156  0.32669803  0.20594262     0.12700
H634        H  0.33474070  0.41435357  0.07534874     0.11700
H635        H  0.29832959  0.38016860  0.12074643     0.11000
H636        H  0.29568097  0.34140955  0.17666137     0.16400
H637        H  0.39843136  0.30870196  0.23088945     0.12300
H638        H  0.49726644  0.40338329  0.10874450     0.15100
H639        H  0.39587295  0.43725179  0.05303152     0.14900
C640        C  0.64582339  0.54190431  0.79690699    -0.18000
C641        C  0.66461163  0.56282762  0.77074130    -0.20100
C642        C  0.66265081  0.60303617  0.77123648     0.20500
C643        C  0.64174212  0.62240662  0.79844230    -0.03100
C644        C  0.62261103  0.60128913  0.82478796    -0.06100
C645        C  0.62469827  0.56086984  0.82390479     0.20800
C646        C  0.60167805  0.62059187  0.85213319     0.18900
C647        C  0.59952282  0.66078306  0.85238568    -0.17600
C648        C  0.61857714  0.68172336  0.82627145    -0.19800
C649        C  0.63995511  0.66280882  0.79934012     0.20400
C650        C  0.65939506  0.68357582  0.77320935    -0.32800
C651        C  0.67952190  0.66449890  0.74513184     0.01100
C652        C  0.68083597  0.62405426  0.74460974    -0.24200
C653        C  0.60607379  0.54009502  0.85033992    -0.28800
C654        C  0.58618990  0.55912520  0.87831539     0.06800
C655        C  0.58384878  0.59935387  0.87901813    -0.27400
H656        H  0.64782851  0.51087927  0.79603531     0.11500
H657        H  0.68068214  0.54754126  0.75008860     0.12700
H658        H  0.58336494  0.67605215  0.87298231     0.11700
H659        H  0.61663125  0.71274388  0.82717253     0.11000
H660        H  0.65868306  0.71461291  0.77490813     0.16400
H661        H  0.69506953  0.60851113  0.72286338     0.12300
H662        H  0.60806888  0.50905205  0.84984477     0.15100
H663        H  0.56823014  0.61398886  0.90044865     0.14900
C664        C  0.70753277  0.42178479  0.81031908    -0.18000
C665        C  0.68906532  0.44010172  0.83925501    -0.20100
C666        C  0.66561696  0.41917871  0.86181603     0.20500
C667        C  0.66117359  0.37929485  0.85573375    -0.03100
C668        C  0.68061754  0.36059906  0.82696160    -0.06100
C669        C  0.70337348  0.38215378  0.80389382     0.20800
C670        C  0.67647489  0.32070138  0.82061589     0.18900
C671        C  0.65295172  0.29985438  0.84337545    -0.17600
C672        C  0.63289796  0.31858012  0.87139280    -0.19800
C673        C  0.63650029  0.35842061  0.87760979     0.20400
C674        C  0.61511715  0.37807652  0.90435230    -0.32800
C675        C  0.61927602  0.41805064  0.91006780     0.01100
C676        C  0.64548596  0.43793709  0.88941367    -0.24200
C677        C  0.72076260  0.36412652  0.77404040    -0.28800
C678        C  0.71682306  0.32439192  0.76697250     0.06800
C679        C  0.69513346  0.30270185  0.79106793    -0.27400
H680        H  0.72489868  0.43870631  0.79277659     0.11500
H681        H  0.69248560  0.47081416  0.84349814     0.12700
H682        H  0.64939855  0.26916571  0.83898049     0.11700
H683        H  0.61429210  0.30196046  0.88795088     0.11000
H684        H  0.59486187  0.36257163  0.92008616     0.16400
H685        H  0.64859870  0.46875287  0.89319411     0.12300
H686        H  0.73616135  0.38169683  0.75541531     0.15100
H687        H  0.69209600  0.27199274  0.78651998     0.14900
C688        C  0.39555218  0.30849672  0.83877565    -0.18000
C689        C  0.41272877  0.32658322  0.86960187    -0.20100
C690        C  0.41016098  0.36650445  0.87531400     0.20500
C691        C  0.38980382  0.38835631  0.84980547    -0.03100
C692        C  0.37292358  0.37015702  0.81841672    -0.06100
C693        C  0.37578120  0.33001673  0.81284427     0.20800
C694        C  0.35363295  0.39224154  0.79239371     0.18900
C695        C  0.35113752  0.43215965  0.79797379    -0.17600
C696        C  0.36753690  0.45011638  0.82915863    -0.19800
C697        C  0.38693460  0.42851338  0.85523548     0.20400
C698        C  0.40445654  0.44652148  0.88602008    -0.32800
C699        C  0.42590445  0.42514705  0.91088215     0.01100
C700        C  0.42842643  0.38509379  0.90546165    -0.24200
C701        C  0.35903942  0.31221175  0.78138506    -0.28800
C702        C  0.33964873  0.33408746  0.75524272     0.06800
C703        C  0.33741522  0.37417918  0.76105782    -0.27400
H704        H  0.39806522  0.27767253  0.83502994     0.11500
H705        H  0.42822039  0.30933652  0.88889763     0.12700
H706        H  0.33650676  0.44953938  0.77816063     0.11700
H707        H  0.36533323  0.48099385  0.83271127     0.11000
H708        H  0.40321703  0.47750173  0.88945756     0.16400
H709        H  0.44534879  0.36857608  0.92425559     0.12300
H710        H  0.36089222  0.28135405  0.77739349     0.15100
H711        H  0.32349748  0.39160278  0.74079726     0.14900
C712        C  0.48492661  0.60522662  0.80143889    -0.18000
C713        C  0.46755755  0.62470394  0.77267158    -0.20100
C714        C  0.43080297  0.63829315  0.77606960     0.20500
C715        C  0.41192840  0.63355045  0.80937870    -0.03100
C716        C  0.42982745  0.61468632  0.83878368    -0.06100
C717        C  0.46604236  0.59946980  0.83433699     0.20800
C718        C  0.41092011  0.60975275  0.87207914     0.18900
C719        C  0.37459007  0.62435344  0.87582358    -0.17600
C720        C  0.35662891  0.64241151  0.84649170    -0.19800
C721        C  0.37481504  0.64667931  0.81297147     0.20400
C722        C  0.35639993  0.66332631  0.78286783    -0.32800
C723        C  0.37492353  0.66789389  0.74949497     0.01100
C724        C  0.41235465  0.65586795  0.74656229    -0.24200
C725        C  0.48201734  0.57733761  0.86218189    -0.28800
C726        C  0.46292225  0.57133683  0.89500581     0.06800
C727        C  0.42797067  0.58879654  0.90032444    -0.27400
H728        H  0.51292517  0.59412411  0.79773961     0.11500
H729        H  0.48257583  0.62833223  0.74740626     0.12700
H730        H  0.35965314  0.62092463  0.90116229     0.11700
H731        H  0.32828372  0.65262560  0.84988696     0.11000
H732        H  0.32777929  0.67307037  0.78542679     0.16400
H733        H  0.42678039  0.65938437  0.72091933     0.12300
H734        H  0.50875711  0.56363070  0.85781170     0.15100
H735        H  0.41295405  0.58377840  0.92536238     0.14900
loop_ 
_geom_bond_atom_site_label_1 
_geom_bond_atom_site_label_2 
_geom_bond_distance 
_geom_bond_site_symmetry_2 
_ccdc_geom_bond_type 
O1            C9   1.280       .  A
O1          Co21   2.026       .  S
O2           C10   1.263       .  A
O2          Co22   1.996       .  S
O3           C11   1.271       .  A
O3          Co23   1.905   1_554  S
O4           C12   1.267       .  A
O4          Co24   1.976       .  S
O5           C11   1.296       .  A
O5          Co22   2.104       .  S
O6           C12   1.273       .  A
O6          Co21   2.013       .  S
O7           C10   1.262       .  A
O7          Co24   1.992   1_554  S
O8            C9   1.275       .  A
O8          Co23   1.986       .  S
C9          C726   1.482       .  S
C10         C582   1.476       .  S
C11         C603   1.489       .  S
C12         C654   1.472       .  S
O13          C26   1.265       .  A
O13         Co21   1.978       .  S
O14          C27   1.262       .  A
O14         Co22   1.872       .  S
O15          C28   1.267       .  A
O15         Co23   2.017       .  S
O16          C29   1.279       .  A
O16         Co24   2.034   1_554  S
O17          C29   1.268       .  A
O17         Co22   1.966       .  S
O18          C28   1.258       .  A
O18         Co21   1.975       .  S
O19          C26   1.275       .  A
O19         Co24   2.016       .  S
O20          C27   1.302       .  A
O20         Co23   2.134   1_554  S
Co21         O25   2.020       .  S
Co22         O25   1.978   1_554  S
Co23         O25   2.025       .  S
Co24         O25   2.039       .  S
C26         C675   1.482       .  S
C27         C630   1.481       .  S
C28         C699   1.482       .  S
C29         C558   1.484       .  S
O30          C38   1.257       .  A
O30         Co50   1.966       .  S
O31          C39   1.266       .  A
O31         Co51   1.964       .  S
O32          C40   1.298       .  A
O32         Co52   2.116       .  S
O33          C41   1.271       .  A
O33         Co53   2.016   1_565  S
O34          C40   1.261       .  A
O34         Co51   1.888       .  S
O35          C41   1.263       .  A
O35         Co50   1.974       .  S
O36          C39   1.279       .  A
O36         Co53   2.028       .  S
O37          C38   1.267       .  A
O37         Co52   2.027   1_565  S
C38         C510   1.487       .  S
C39         C363   1.469       .  S
C40         C438   1.484       .  S
C41         C486   1.478       .  S
O42          C55   1.274       .  A
O42         Co50   2.013       .  S
O43          C56   1.296       .  A
O43         Co51   2.099       .  S
O44          C57   1.270       .  A
O44         Co52   1.969   1_565  S
O45          C58   1.262       .  A
O45         Co53   1.992       .  S
O46          C58   1.264       .  A
O46         Co51   1.999       .  S
O47          C57   1.279       .  A
O47         Co50   2.023       .  S
O48          C55   1.269       .  A
O48         Co53   1.975   1_565  S
O49          C56   1.271       .  A
O49         Co52   1.903       .  S
Co50         O54   2.013   1_565  S
Co51         O54   1.978       .  S
Co52         O54   2.034       .  S
Co53         O54   2.047       .  S
C55         C459   1.481       .  S
C56         C411   1.486       .  S
C57         C534   1.473       .  S
C58         C387   1.487       .  S
O59          C67   1.263       .  A
O59         Co79   1.984       .  S
O60          C68   1.268       .  A
O60         Co80   1.977       .  S
O61          C69   1.299       .  A
O61         Co81   2.133       .  S
O62          C70   1.273       .  A
O62         Co82   2.025   1_655  S
O63          C69   1.263       .  A
O63         Co80   1.878       .  S
O64          C70   1.261       .  A
O64         Co79   1.966       .  S
O65          C68   1.277       .  A
O65         Co82   2.020       .  S
O66          C67   1.266       .  A
O66         Co81   2.008   1_655  S
C67         C318   1.485       .  S
C68         C174   1.477       .  S
C69         C243   1.483       .  S
C70         C294   1.480       .  S
O71          C84   1.277       .  A
O71         Co79   2.019       .  S
O72          C85   1.299       .  A
O72         Co80   2.108       .  S
O73          C86   1.278       .  A
O73         Co81   2.000   1_655  S
O74          C87   1.270       .  A
O74         Co82   2.010       .  S
O75          C87   1.265       .  A
O75         Co80   1.997       .  S
O76          C86   1.277       .  A
O76         Co79   2.010       .  S
O77          C84   1.271       .  A
O77         Co82   1.980   1_655  S
O78          C85   1.271       .  A
O78         Co81   1.896       .  S
Co79         O83   2.015   1_655  S
Co80         O83   1.974       .  S
Co81         O83   2.020       .  S
Co82         O83   2.064       .  S
C84         C267   1.486       .  S
C85         C219   1.487       .  S
C86         C339   1.493       .  S
C87         C195   1.498       .  S
C88         C315   1.506       .  S
C88          C89   1.413       .  A
C88          C93   1.408       .  A
C89          C90   1.416       .  A
C89          H94   1.077       .  S
C90         C555   1.509       .  S
C90          C91   1.414       .  A
C91          C92   1.403       .  A
C91          H95   1.081       .  S
C92         C435   1.487       .  S
C92          C93   1.401       .  A
C93          H96   1.082       .  S
C97         C342   1.493       .  S
C97          C98   1.404       .  A
C97         C102   1.405       .  A
C98          C99   1.409       .  A
C98         H103   1.083       .  S
C99         C579   1.498       .  S
C99         C100   1.409       .  A
C100        C101   1.410       .  A
C100        H104   1.082       .  S
C101        C507   1.496       .  S
C101        C102   1.413       .  A
C102        H105   1.083       .  S
C106        C678   1.497       .  S
C106        C107   1.403       .  A
C106        C111   1.408       .  A
C107        C108   1.407       .  A
C107        H112   1.081       .  S
C108        C366   1.487       .  S
C108        C109   1.406       .  A
C109        C110   1.407       .  A
C109        H113   1.082       .  S
C110        C291   1.495       .  S
C110        C111   1.407       .  A
C111        H114   1.082       .  S
C115        C531   1.482       .  S
C115        C116   1.403       .  A
C115        C120   1.407       .  A
C116        C117   1.405       .  A
C116        H121   1.084       .  S
C117        C222   1.492       .  S
C117        C118   1.408       .  A
C118        C119   1.411       .  A
C118        H122   1.083       .  S
C119        C606   1.498       .  S
C119        C120   1.411       .  A
C120        H123   1.083       .  S
C124        C723   1.490       .  S
C124        C125   1.403       .  A
C124        C129   1.411       .  A
C125        C126   1.404       .  A
C125        H130   1.084       .  S
C126        C462   1.484       .  S
C126        C127   1.407       .  A
C127        C128   1.406       .  A
C127        H131   1.084       .  S
C128        C198   1.494       .  S
C128        C129   1.413       .  A
C129        H132   1.084       .  S
C133        C702   1.496       .  S
C133        C134   1.407       .  A
C133        C138   1.408       .  A
C134        C135   1.408       .  A
C134        H139   1.082       .  S
C135        C171   1.496       .  S
C135        C136   1.407       .  A
C136        C137   1.404       .  A
C136        H140   1.083       .  S
C137        C390   1.482       .  S
C137        C138   1.408       .  A
C138        H141   1.083       .  S
C142        C651   1.498       .  S
C142        C143   1.409       .  A
C142        C147   1.408       .  A
C143        C144   1.403       .  A
C143        H148   1.082       .  S
C144        C270   1.484       .  S
C144        C145   1.402       .  A
C145        C146   1.408       .  A
C145        H149   1.083       .  S
C146        C483   1.491       .  S
C146        C147   1.407       .  A
C147        H150   1.080       .  S
C151        C414   1.493       .  S
C151        C152   1.405       .  A
C151        C156   1.402       .  A
C152        C153   1.411       .  A
C152        H157   1.083       .  S
C153        C627   1.497       .  S
C153        C154   1.413       .  A
C154        C155   1.410       .  A
C154        H158   1.083       .  S
C155        C246   1.490       .  S
C155        C156   1.405       .  A
C156        H159   1.084       .  S
C160        C161   1.397       .  A
C160        C165   1.403       .  A
C160        H176   1.084       .  S
C161        C162   1.404       .  A
C161        H177   1.084       .  S
C162        C172   1.401       .  A
C162        C163   1.410       .  A
C163        C169   1.411       .  A
C163        C164   1.413       .  A
C164        C166   1.413       .  A
C164        C165   1.410       .  A
C165        C173   1.399       .  A
C166        C175   1.407       .  A
C166        C167   1.404       .  A
C167        C168   1.401       .  A
C167        H178   1.083       .  S
C168        C169   1.405       .  A
C168        H179   1.083       .  S
C169        C170   1.407       .  A
C170        C171   1.411       .  A
C170        H180   1.083       .  S
C171        C172   1.411       .  A
C172        H181   1.083       .  S
C173        C174   1.407       .  A
C173        H182   1.085       .  S
C174        C175   1.406       .  A
C175        H183   1.084       .  S
C184        C185   1.398       .  A
C184        C189   1.402       .  A
C184        H200   1.084       .  S
C185        C186   1.404       .  A
C185        H201   1.084       .  S
C186        C196   1.401       .  A
C186        C187   1.408       .  A
C187        C193   1.414       .  A
C187        C188   1.419       .  A
C188        C190   1.411       .  A
C188        C189   1.413       .  A
C189        C197   1.405       .  A
C190        C199   1.413       .  A
C190        C191   1.407       .  A
C191        C192   1.406       .  A
C191        H202   1.083       .  S
C192        C193   1.406       .  A
C192        H203   1.083       .  S
C193        C194   1.418       .  A
C194        C195   1.412       .  A
C194        H204   1.084       .  S
C195        C196   1.412       .  A
C196        H205   1.084       .  S
C197        C198   1.406       .  A
C197        H206   1.085       .  S
C198        C199   1.412       .  A
C199        H207   1.084       .  S
C208        C209   1.401       .  A
C208        C213   1.404       .  A
C208        H224   1.084       .  S
C209        C210   1.404       .  A
C209        H225   1.083       .  S
C210        C220   1.407       .  A
C210        C211   1.412       .  A
C211        C217   1.411       .  A
C211        C212   1.414       .  A
C212        C214   1.411       .  A
C212        C213   1.411       .  A
C213        C221   1.406       .  A
C214        C223   1.404       .  A
C214        C215   1.404       .  A
C215        C216   1.399       .  A
C215        H226   1.084       .  S
C216        C217   1.404       .  A
C216        H227   1.084       .  S
C217        C218   1.404       .  A
C218        C219   1.409       .  A
C218        H228   1.084       .  S
C219        C220   1.408       .  A
C220        H229   1.084       .  S
C221        C222   1.409       .  A
C221        H230   1.084       .  S
C222        C223   1.409       .  A
C223        H231   1.084       .  S
C232        C233   1.396       .  A
C232        C237   1.403       .  A
C232        H248   1.084       .  S
C233        C234   1.402       .  A
C233        H249   1.084       .  S
C234        C244   1.400       .  A
C234        C235   1.411       .  A
C235        C241   1.412       .  A
C235        C236   1.414       .  A
C236        C238   1.413       .  A
C236        C237   1.410       .  A
C237        C245   1.399       .  A
C238        C247   1.411       .  A
C238        C239   1.405       .  A
C239        C240   1.404       .  A
C239        H250   1.083       .  S
C240        C241   1.405       .  A
C240        H251   1.083       .  S
C241        C242   1.410       .  A
C242        C243   1.409       .  A
C242        H252   1.084       .  S
C243        C244   1.406       .  A
C244        H253   1.085       .  S
C245        C246   1.407       .  A
C245        H254   1.085       .  S
C246        C247   1.409       .  A
C247        H255   1.084       .  S
C256        C257   1.402       .  A
C256        C261   1.404       .  A
C256        H272   1.083       .  S
C257        C258   1.404       .  A
C257        H273   1.083       .  S
C258        C268   1.408       .  A
C258        C259   1.412       .  A
C259        C265   1.410       .  A
C259        C260   1.413       .  A
C260        C262   1.412       .  A
C260        C261   1.412       .  A
C261        C269   1.407       .  A
C262        C271   1.401       .  A
C262        C263   1.403       .  A
C263        C264   1.398       .  A
C263        H274   1.084       .  S
C264        C265   1.403       .  A
C264        H275   1.084       .  S
C265        C266   1.400       .  A
C266        C267   1.409       .  A
C266        H276   1.084       .  S
C267        C268   1.408       .  A
C268        H277   1.084       .  S
C269        C270   1.407       .  A
C269        H278   1.084       .  S
C270        C271   1.406       .  A
C271        H279   1.085       .  S
C280        C281   1.400       .  A
C280        C285   1.404       .  A
C280        H296   1.084       .  S
C281        C282   1.404       .  A
C281        H297   1.083       .  S
C282        C292   1.405       .  A
C282        C283   1.411       .  A
C283        C289   1.410       .  A
C283        C284   1.413       .  A
C284        C286   1.412       .  A
C284        C285   1.411       .  A
C285        C293   1.404       .  A
C286        C295   1.403       .  A
C286        C287   1.403       .  A
C287        C288   1.399       .  A
C287        H298   1.084       .  S
C288        C289   1.404       .  A
C288        H299   1.083       .  S
C289        C290   1.402       .  A
C290        C291   1.411       .  A
C290        H300   1.083       .  S
C291        C292   1.409       .  A
C292        H301   1.083       .  S
C293        C294   1.407       .  A
C293        H302   1.084       .  S
C294        C295   1.408       .  A
C295        H303   1.084       .  S
C304        C305   1.400       .  A
C304        C309   1.404       .  A
C304        H320   1.084       .  S
C305        C306   1.405       .  A
C305        H321   1.084       .  S
C306        C316   1.407       .  A
C306        C307   1.411       .  A
C307        C313   1.408       .  A
C307        C308   1.415       .  A
C308        C310   1.413       .  A
C308        C309   1.410       .  A
C309        C317   1.405       .  A
C310        C319   1.407       .  A
C310        C311   1.403       .  A
C311        C312   1.400       .  A
C311        H322   1.084       .  S
C312        C313   1.405       .  A
C312        H323   1.083       .  S
C313        C314   1.404       .  A
C314        C315   1.414       .  A
C314        H324   1.082       .  S
C315        C316   1.413       .  A
C316        H325   1.082       .  S
C317        C318   1.409       .  A
C317        H326   1.084       .  S
C318        C319   1.407       .  A
C319        H327   1.084       .  S
C328        C329   1.398       .  A
C328        C333   1.403       .  A
C328        H344   1.084       .  S
C329        C330   1.404       .  A
C329        H345   1.084       .  S
C330        C340   1.400       .  A
C330        C331   1.408       .  A
C331        C337   1.414       .  A
C331        C332   1.417       .  A
C332        C334   1.411       .  A
C332        C333   1.412       .  A
C333        C341   1.403       .  A
C334        C343   1.411       .  A
C334        C335   1.405       .  A
C335        C336   1.404       .  A
C335        H346   1.083       .  S
C336        C337   1.405       .  A
C336        H347   1.083       .  S
C337        C338   1.414       .  A
C338        C339   1.409       .  A
C338        H348   1.084       .  S
C339        C340   1.413       .  A
C340        H349   1.084       .  S
C341        C342   1.408       .  A
C341        H350   1.085       .  S
C342        C343   1.410       .  A
C343        H351   1.084       .  S
C352        C353   1.400       .  A
C352        C357   1.404       .  A
C352        H368   1.084       .  S
C353        C354   1.404       .  A
C353        H369   1.083       .  S
C354        C364   1.404       .  A
C354        C355   1.412       .  A
C355        C361   1.412       .  A
C355        C356   1.410       .  A
C356        C358   1.410       .  A
C356        C357   1.412       .  A
C357        C365   1.405       .  A
C358        C367   1.398       .  A
C358        C359   1.403       .  A
C359        C360   1.397       .  A
C359        H370   1.083       .  S
C360        C361   1.402       .  A
C360        H371   1.084       .  S
C361        C362   1.399       .  A
C362        C363   1.404       .  A
C362        H372   1.085       .  S
C363        C364   1.405       .  A
C364        H373   1.084       .  S
C365        C366   1.408       .  A
C365        H374   1.084       .  S
C366        C367   1.407       .  A
C367        H375   1.083       .  S
C376        C377   1.397       .  A
C376        C381   1.402       .  A
C376        H392   1.084       .  S
C377        C378   1.403       .  A
C377        H393   1.084       .  S
C378        C388   1.399       .  A
C378        C379   1.410       .  A
C379        C385   1.412       .  A
C379        C380   1.414       .  A
C380        C382   1.412       .  A
C380        C381   1.413       .  A
C381        C389   1.402       .  A
C382        C391   1.409       .  A
C382        C383   1.405       .  A
C383        C384   1.403       .  A
C383        H394   1.084       .  S
C384        C385   1.406       .  A
C384        H395   1.083       .  S
C385        C386   1.411       .  A
C386        C387   1.410       .  A
C386        H396   1.084       .  S
C387        C388   1.408       .  A
C388        H397   1.085       .  S
C389        C390   1.403       .  A
C389        H398   1.085       .  S
C390        C391   1.408       .  A
C391        H399   1.084       .  S
C400        C401   1.399       .  A
C400        C405   1.404       .  A
C400        H416   1.084       .  S
C401        C402   1.404       .  A
C401        H417   1.084       .  S
C402        C412   1.403       .  A
C402        C403   1.411       .  A
C403        C409   1.412       .  A
C403        C404   1.414       .  A
C404        C406   1.412       .  A
C404        C405   1.410       .  A
C405        C413   1.402       .  A
C406        C415   1.407       .  A
C406        C407   1.404       .  A
C407        C408   1.401       .  A
C407        H418   1.083       .  S
C408        C409   1.404       .  A
C408        H419   1.083       .  S
C409        C410   1.407       .  A
C410        C411   1.408       .  A
C410        H420   1.084       .  S
C411        C412   1.409       .  A
C412        H421   1.084       .  S
C413        C414   1.410       .  A
C413        H422   1.084       .  S
C414        C415   1.409       .  A
C415        H423   1.084       .  S
C424        C425   1.399       .  A
C424        C429   1.404       .  A
C424        H440   1.084       .  S
C425        C426   1.403       .  A
C425        H441   1.083       .  S
C426        C436   1.403       .  A
C426        C427   1.411       .  A
C427        C433   1.412       .  A
C427        C428   1.414       .  A
C428        C430   1.412       .  A
C428        C429   1.411       .  A
C429        C437   1.403       .  A
C430        C439   1.407       .  A
C430        C431   1.404       .  A
C431        C432   1.401       .  A
C431        H442   1.083       .  S
C432        C433   1.404       .  A
C432        H443   1.083       .  S
C433        C434   1.408       .  A
C434        C435   1.407       .  A
C434        H444   1.084       .  S
C435        C436   1.407       .  A
C436        H445   1.084       .  S
C437        C438   1.409       .  A
C437        H446   1.085       .  S
C438        C439   1.407       .  A
C439        H447   1.084       .  S
C448        C449   1.398       .  A
C448        C453   1.404       .  A
C448        H464   1.084       .  S
C449        C450   1.404       .  A
C449        H465   1.084       .  S
C450        C460   1.401       .  A
C450        C451   1.410       .  A
C451        C457   1.412       .  A
C451        C452   1.412       .  A
C452        C454   1.412       .  A
C452        C453   1.411       .  A
C453        C461   1.402       .  A
C454        C463   1.405       .  A
C454        C455   1.404       .  A
C455        C456   1.400       .  A
C455        H466   1.084       .  S
C456        C457   1.403       .  A
C456        H467   1.084       .  S
C457        C458   1.404       .  A
C458        C459   1.406       .  A
C458        H468   1.084       .  S
C459        C460   1.409       .  A
C460        H469   1.084       .  S
C461        C462   1.407       .  A
C461        H470   1.084       .  S
C462        C463   1.406       .  A
C463        H471   1.084       .  S
C472        C473   1.400       .  A
C472        C477   1.403       .  A
C472        H488   1.083       .  S
C473        C474   1.404       .  A
C473        H489   1.084       .  S
C474        C484   1.403       .  A
C474        C475   1.411       .  A
C475        C481   1.411       .  A
C475        C476   1.412       .  A
C476        C478   1.410       .  A
C476        C477   1.413       .  A
C477        C485   1.406       .  A
C478        C487   1.400       .  A
C478        C479   1.404       .  A
C479        C480   1.398       .  A
C479        H490   1.084       .  S
C480        C481   1.404       .  A
C480        H491   1.083       .  S
C481        C482   1.402       .  A
C482        C483   1.410       .  A
C482        H492   1.083       .  S
C483        C484   1.408       .  A
C484        H493   1.084       .  S
C485        C486   1.405       .  A
C485        H494   1.084       .  S
C486        C487   1.408       .  A
C487        H495   1.085       .  S
C496        C497   1.397       .  A
C496        C501   1.403       .  A
C496        H512   1.084       .  S
C497        C498   1.403       .  A
C497        H513   1.084       .  S
C498        C508   1.402       .  A
C498        C499   1.412       .  A
C499        C505   1.410       .  A
C499        C500   1.416       .  A
C500        C502   1.414       .  A
C500        C501   1.409       .  A
C501        C509   1.400       .  A
C502        C511   1.413       .  A
C502        C503   1.405       .  A
C503        C504   1.404       .  A
C503        H514   1.083       .  S
C504        C505   1.406       .  A
C504        H515   1.083       .  S
C505        C506   1.410       .  A
C506        C507   1.412       .  A
C506        H516   1.084       .  S
C507        C508   1.408       .  A
C508        H517   1.084       .  S
C509        C510   1.409       .  A
C509        H518   1.084       .  S
C510        C511   1.409       .  A
C511        H519   1.084       .  S
C520        C521   1.402       .  A
C520        C525   1.404       .  A
C520        H536   1.083       .  S
C521        C522   1.404       .  A
C521        H537   1.084       .  S
C522        C532   1.408       .  A
C522        C523   1.413       .  A
C523        C529   1.411       .  A
C523        C524   1.413       .  A
C524        C526   1.412       .  A
C524        C525   1.412       .  A
C525        C533   1.406       .  A
C526        C535   1.402       .  A
C526        C527   1.403       .  A
C527        C528   1.398       .  A
C527        H538   1.084       .  S
C528        C529   1.403       .  A
C528        H539   1.084       .  S
C529        C530   1.402       .  A
C530        C531   1.405       .  A
C530        H540   1.085       .  S
C531        C532   1.406       .  A
C532        H541   1.084       .  S
C533        C534   1.406       .  A
C533        H542   1.084       .  S
C534        C535   1.404       .  A
C535        H543   1.084       .  S
C544        C545   1.401       .  A
C544        C549   1.404       .  A
C544        H560   1.084       .  S
C545        C546   1.405       .  A
C545        H561   1.083       .  S
C546        C556   1.407       .  A
C546        C547   1.409       .  A
C547        C553   1.409       .  A
C547        C548   1.415       .  A
C548        C550   1.411       .  A
C548        C549   1.412       .  A
C549        C557   1.407       .  A
C550        C559   1.402       .  A
C550        C551   1.403       .  A
C551        C552   1.399       .  A
C551        H562   1.084       .  S
C552        C553   1.404       .  A
C552        H563   1.083       .  S
C553        C554   1.404       .  A
C554        C555   1.414       .  A
C554        H564   1.082       .  S
C555        C556   1.415       .  A
C556        H565   1.081       .  S
C557        C558   1.409       .  A
C557        H566   1.084       .  S
C558        C559   1.408       .  A
C559        H567   1.084       .  S
C568        C569   1.403       .  A
C568        C573   1.405       .  A
C568        H584   1.083       .  S
C569        C570   1.406       .  A
C569        H585   1.083       .  S
C570        C580   1.410       .  A
C570        C571   1.411       .  A
C571        C577   1.410       .  A
C571        C572   1.413       .  A
C572        C574   1.410       .  A
C572        C573   1.413       .  A
C573        C581   1.410       .  A
C574        C583   1.397       .  A
C574        C575   1.402       .  A
C575        C576   1.396       .  A
C575        H586   1.084       .  S
C576        C577   1.403       .  A
C576        H587   1.084       .  S
C577        C578   1.399       .  A
C578        C579   1.409       .  A
C578        H588   1.083       .  S
C579        C580   1.413       .  A
C580        H589   1.083       .  S
C581        C582   1.407       .  A
C581        H590   1.084       .  S
C582        C583   1.405       .  A
C583        H591   1.085       .  S
C592        C593   1.400       .  A
C592        C597   1.404       .  A
C592        H608   1.084       .  S
C593        C594   1.404       .  A
C593        H609   1.083       .  S
C594        C604   1.407       .  A
C594        C595   1.412       .  A
C595        C601   1.411       .  A
C595        C596   1.416       .  A
C596        C598   1.412       .  A
C596        C597   1.411       .  A
C597        C605   1.406       .  A
C598        C607   1.408       .  A
C598        C599   1.405       .  A
C599        C600   1.402       .  A
C599        H610   1.083       .  S
C600        C601   1.405       .  A
C600        H611   1.084       .  S
C601        C602   1.407       .  A
C602        C603   1.411       .  A
C602        H612   1.084       .  S
C603        C604   1.408       .  A
C604        H613   1.084       .  S
C605        C606   1.410       .  A
C605        H614   1.084       .  S
C606        C607   1.411       .  A
C607        H615   1.084       .  S
C616        C617   1.397       .  A
C616        C621   1.403       .  A
C616        H632   1.083       .  S
C617        C618   1.403       .  A
C617        H633   1.084       .  S
C618        C628   1.401       .  A
C618        C619   1.411       .  A
C619        C625   1.412       .  A
C619        C620   1.415       .  A
C620        C622   1.413       .  A
C620        C621   1.410       .  A
C621        C629   1.399       .  A
C622        C631   1.412       .  A
C622        C623   1.405       .  A
C623        C624   1.404       .  A
C623        H634   1.084       .  S
C624        C625   1.406       .  A
C624        H635   1.083       .  S
C625        C626   1.411       .  A
C626        C627   1.411       .  A
C626        H636   1.084       .  S
C627        C628   1.409       .  A
C628        H637   1.084       .  S
C629        C630   1.407       .  A
C629        H638   1.084       .  S
C630        C631   1.408       .  A
C631        H639   1.084       .  S
C640        C641   1.396       .  A
C640        C645   1.402       .  A
C640        H656   1.084       .  S
C641        C642   1.403       .  A
C641        H657   1.084       .  S
C642        C652   1.400       .  A
C642        C643   1.410       .  A
C643        C649   1.410       .  A
C643        C644   1.411       .  A
C644        C646   1.413       .  A
C644        C645   1.411       .  A
C645        C653   1.398       .  A
C646        C655   1.405       .  A
C646        C647   1.403       .  A
C647        C648   1.400       .  A
C647        H658   1.084       .  S
C648        C649   1.405       .  A
C648        H659   1.083       .  S
C649        C650   1.404       .  A
C650        C651   1.413       .  A
C650        H660   1.082       .  S
C651        C652   1.410       .  A
C652        H661   1.082       .  S
C653        C654   1.405       .  A
C653        H662   1.084       .  S
C654        C655   1.405       .  A
C655        H663   1.084       .  S
C664        C665   1.394       .  A
C664        C669   1.402       .  A
C664        H680   1.084       .  S
C665        C666   1.402       .  A
C665        H681   1.084       .  S
C666        C676   1.395       .  A
C666        C667   1.410       .  A
C667        C673   1.413       .  A
C667        C668   1.413       .  A
C668        C670   1.410       .  A
C668        C669   1.410       .  A
C669        C677   1.397       .  A
C670        C679   1.409       .  A
C670        C671   1.406       .  A
C671        C672   1.404       .  A
C671        H682   1.084       .  S
C672        C673   1.406       .  A
C672        H683   1.083       .  S
C673        C674   1.412       .  A
C674        C675   1.410       .  A
C674        H684   1.084       .  S
C675        C676   1.405       .  A
C676        H685   1.084       .  S
C677        C678   1.408       .  A
C677        H686   1.083       .  S
C678        C679   1.415       .  A
C679        H687   1.083       .  S
C688        C689   1.402       .  A
C688        C693   1.405       .  A
C688        H704   1.083       .  S
C689        C690   1.405       .  A
C689        H705   1.083       .  S
C690        C700   1.408       .  A
C690        C691   1.411       .  A
C691        C697   1.412       .  A
C691        C692   1.415       .  A
C692        C694   1.410       .  A
C692        C693   1.412       .  A
C693        C701   1.410       .  A
C694        C703   1.402       .  A
C694        C695   1.404       .  A
C695        C696   1.399       .  A
C695        H706   1.084       .  S
C696        C697   1.403       .  A
C696        H707   1.084       .  S
C697        C698   1.405       .  A
C698        C699   1.407       .  A
C698        H708   1.085       .  S
C699        C700   1.408       .  A
C700        H709   1.084       .  S
C701        C702   1.410       .  A
C701        H710   1.084       .  S
C702        C703   1.410       .  A
C703        H711   1.084       .  S
C712        C713   1.401       .  A
C712        C717   1.404       .  A
C712        H728   1.084       .  S
C713        C714   1.405       .  A
C713        H729   1.084       .  S
C714        C724   1.407       .  A
C714        C715   1.412       .  A
C715        C721   1.412       .  A
C715        C716   1.416       .  A
C716        C718   1.413       .  A
C716        C717   1.411       .  A
C717        C725   1.405       .  A
C718        C727   1.409       .  A
C718        C719   1.404       .  A
C719        C720   1.402       .  A
C719        H730   1.084       .  S
C720        C721   1.404       .  A
C720        H731   1.083       .  S
C721        C722   1.408       .  A
C722        C723   1.407       .  A
C722        H732   1.084       .  S
C723        C724   1.409       .  A
C724        H733   1.084       .  S
C725        C726   1.407       .  A
C725        H734   1.083       .  S
C726        C727   1.406       .  A
C727        H735   1.084       .  S
