geometry optimzed in LAMMPS
_audit_creation_date              2020-12-01 
_audit_creation_method            'lammps2cif' 
_symmetry_space_group_name_H-M    'P1' 
_symmetry_Int_Tables_number       1 
_symmetry_cell_setting            triclinic 
loop_ 
_symmetry_equiv_pos_as_xyz 
  x,y,z 
_cell_length_a                    46.6329892 
_cell_length_b                    46.42473250592392 
_cell_length_c                    94.85930922433339 
_cell_angle_alpha                 90.2121073704114 
_cell_angle_beta                  90.08559777738485 
_cell_angle_gamma                 90.55472494128163 
loop_ 
_atom_site_label 
_atom_site_type_symbol 
_atom_site_fract_x 
_atom_site_fract_y 
_atom_site_fract_z 
_atom_site_charge 
C1          C  0.24736635  0.50008942  0.25205936    -0.01800
N2          N  0.49845223  0.27401237  0.98136443    -0.36000
N3          N  0.45386420  0.27489334  0.00244517    -0.56500
N4          N  0.49836588  0.27317567  0.02352447    -0.35900
N5          N  0.04251319  0.23810003  0.00225729    -0.56500
C6          C  0.47557488  0.28191054  0.97358697     0.27600
C7          C  0.02068441  0.23541567  0.97296946     0.27600
C8          C  0.47495438  0.27874268  0.03140508     0.27600
C9          C  0.02191552  0.23143599  0.03154157     0.27600
C10         C  0.43760914  0.27010969  0.99090470     0.36300
C11         C  0.43765820  0.26750369  0.01363496     0.36300
C12         C  0.05903732  0.24313816  0.99083616     0.36300
C13         C  0.05891987  0.24395999  0.01364857     0.36300
C14         C  0.48476891  0.29263972  0.96071465    -0.21200
C15         C  0.01133690  0.22798368  0.95953335    -0.21200
C16         C  0.48325695  0.28950953  0.04444529    -0.21200
C17         C  0.01443944  0.22044187  0.04461924    -0.21200
C18         C  0.41061320  0.26020636  0.99474663    -0.22300
C19         C  0.41071426  0.25833016  0.00923255    -0.22300
C20         C  0.08639775  0.25144786  0.99496055    -0.22300
C21         C  0.08622360  0.25234704  0.00946685    -0.22300
C22         C  0.44673210  0.27601192  0.97706812    -0.17600
C23         C  0.04977777  0.23934929  0.97678502    -0.17600
C24         C  0.04995849  0.24002131  0.02772223    -0.17600
C25         C  0.44657439  0.27106013  0.02772582    -0.17600
H26         H  0.47164359  0.29989485  0.95203212     0.15300
H27         H  0.02428189  0.22318318  0.95037826     0.15300
H28         H  0.46952646  0.29527452  0.05318401     0.15300
H29         H  0.02866271  0.21520827  0.05324839     0.15300
H30         H  0.39279144  0.25494501  0.98785138     0.13600
H31         H  0.39292514  0.25148985  0.01576974     0.13600
H32         H  0.10445023  0.25656200  0.98823139     0.13600
H33         H  0.10424364  0.25801527  0.01615892     0.13600
H34         H  0.49779719  0.26146038  0.99041142     0.26800
H35         H  0.49849812  0.26120560  0.01424701     0.26800
C36         C  0.24667573  0.50410971  0.75026769    -0.01800
C37         C  0.99728519  0.25387470  0.75232668    -0.01800
N38         N  0.26070987  0.50036598  0.97996582    -0.36000
N39         N  0.25331248  0.04800498  0.00075570    -0.56500
N40         N  0.26368773  0.50820052  0.02197736    -0.35900
N41         N  0.26196245  0.45949543  0.00251683    -0.56500
C42         C  0.24809048  0.02594936  0.97185526     0.27600
C43         C  0.26414078  0.47537588  0.97281295     0.27600
C44         C  0.24734861  0.02790899  0.03059151     0.27600
C45         C  0.27111138  0.48635771  0.03054626     0.27600
C46         C  0.25922058  0.06427130  0.98930649     0.36300
C47         C  0.25664627  0.06524974  0.01213344     0.36300
C48         C  0.25289642  0.44162228  0.99213709     0.36300
C49         C  0.25713077  0.44572335  0.01477728     0.36300
C50         C  0.23701800  0.01718804  0.95895971    -0.21200
C51         C  0.27371950  0.48115934  0.95928173    -0.21200
C52         C  0.23896590  0.01977213  0.04406976    -0.21200
C53         C  0.28194099  0.49740469  0.04311588    -0.21200
C54         C  0.26639634  0.09208565  0.99343075    -0.22300
C55         C  0.26429907  0.09282580  0.00790279    -0.22300
C56         C  0.24256075  0.41610337  0.99779512    -0.22300
C57         C  0.24549369  0.41861107  0.01220654    -0.22300
C58         C  0.25563254  0.05473740  0.97522312    -0.17600
C59         C  0.25557713  0.44784505  0.97765660    -0.17600
C60         C  0.26438449  0.45705999  0.02814203    -0.17600
C61         C  0.25104671  0.05682885  0.02617759    -0.17600
H62         H  0.23143724  0.03060365  0.95007679     0.15300
H63         H  0.27772840  0.46580274  0.95091258     0.15300
H64         H  0.23348457  0.03357038  0.05285763     0.15300
H65         H  0.28876351  0.48554085  0.05230442     0.15300
H66         H  0.27169954  0.11015002  0.98671157     0.13600
H67         H  0.26789576  0.11153355  0.01453591     0.13600
H68         H  0.23414320  0.39757755  0.99213741     0.13600
H69         H  0.23963907  0.40243810  0.01989818     0.13600
H70         H  0.24993974  0.50266774  0.98946820     0.26800
H71         H  0.25107543  0.50631326  0.01297886     0.26800
O72         O  0.32548555  0.26817803  0.87900666    -0.74600
O73         O  0.28942312  0.25807121  0.89418744    -0.53500
C74         C  0.31560034  0.26463790  0.89162031     0.79100
O75         O  0.24624916  0.33612618  0.83007748    -0.59200
O76         O  0.25041186  0.30107995  0.81328083    -0.52300
C77         C  0.24942131  0.32776195  0.81715654     0.71100
O78         O  0.24087014  0.33444986  0.87809752    -0.73800
O79         O  0.24217934  0.29725840  0.89376989    -0.54400
C80         C  0.24075669  0.32406492  0.89071112     0.77100
O81         O  0.32973297  0.26207238  0.83149441    -0.58900
O82         O  0.29572262  0.25493149  0.81436902    -0.52100
C83         C  0.32197725  0.25846352  0.81860316     0.73700
Zr84       Zr  0.30776466  0.26130394  0.85462375     2.54700
O85         O  0.34365584  0.29967640  0.85380737    -0.79500
O86         O  0.34353065  0.22353099  0.85590958    -0.92900
Zr87       Zr  0.24184862  0.31519354  0.85387014     2.64700
O88         O  0.27328614  0.35696944  0.85640580    -0.97900
O89         O  0.19919082  0.34499687  0.85317275    -0.79900
O90         O  0.27467548  0.28873603  0.86774272    -0.83300
O91         O  0.27565755  0.28848911  0.84055567    -2.18000
O92         O  0.24886724  0.17439799  0.82957394    -0.66700
O93         O  0.24666198  0.20978962  0.81299622    -0.51200
C94         C  0.24657250  0.18302691  0.81674181     0.72100
O95         O  0.16751423  0.24046656  0.87736073    -0.59600
O96         O  0.20323212  0.24811418  0.89316098    -0.51600
C97         C  0.17706191  0.24214210  0.89013004     0.73900
O98         O  0.16724290  0.25024046  0.83010301    -0.71000
O99         O  0.20227302  0.25673087  0.81349134    -0.49700
C100        C  0.17578382  0.25380335  0.81735135     0.75300
O101        O  0.25489137  0.17393382  0.87676350    -0.66300
O102        O  0.25242513  0.20999564  0.89310656    -0.53500
C103        C  0.25462671  0.18344039  0.88952631     0.73700
Zr104      Zr  0.25405904  0.19483129  0.85314301     2.77500
O105        O  0.22853439  0.14946707  0.85662151    -0.97100
O106        O  0.29913348  0.16938727  0.85057914    -0.77900
Zr107      Zr  0.18767055  0.24805947  0.85358110     2.70100
O108        O  0.15853682  0.20443212  0.85151921    -0.79100
O109        O  0.14644049  0.27975402  0.85502122    -0.98200
Zr110      Zr  0.24690084  0.25406384  0.88012433     2.21500
Zr111      Zr  0.24847482  0.25544579  0.82617339     2.11100
O112        O  0.22055260  0.22167800  0.83965952    -2.46900
O113        O  0.21999435  0.22014748  0.86682355    -0.78900
O114        O  0.28157457  0.22844007  0.83999268    -0.71100
O115        O  0.21369764  0.28211711  0.86720246    -2.32100
O116        O  0.28113615  0.22693734  0.86745295    -2.28300
O117        O  0.21478272  0.28198442  0.83999085    -0.72900
H118        H  0.28710363  0.30131184  0.83481676     0.79100
H119        H  0.20079839  0.29227478  0.87339622     0.80200
H120        H  0.20924380  0.20918102  0.83363453     0.82400
H121        H  0.29369923  0.21649568  0.87367427     0.80000
H122        H  0.19226984  0.34351527  0.84332314     0.43100
H123        H  0.14665271  0.28730342  0.86479472     0.42000
H124        H  0.16694488  0.19101032  0.85844701     0.41700
H125        H  0.20836487  0.15372870  0.85423332     0.39700
H126        H  0.29619928  0.15123539  0.85585258     0.42800
H127        H  0.34581496  0.21949555  0.86608569     0.37600
H128        H  0.33321235  0.31718722  0.85669876     0.43700
H129        H  0.29161646  0.35080156  0.85217916     0.40100
H130        H  0.23532717  0.13647330  0.84906683     0.45000
H131        H  0.36171503  0.23309502  0.85313046     0.43700
H132        H  0.26556651  0.37154469  0.84986596     0.43900
H133        H  0.15181392  0.29655804  0.84916066     0.44200
O134        O  0.33056045  0.24415305  0.17157915    -0.74600
O135        O  0.29643795  0.24772782  0.18876624    -0.53500
C136        C  0.32268676  0.24512871  0.18453654     0.79100
O137        O  0.25912917  0.33573502  0.12661248    -0.59200
O138        O  0.25011005  0.30073327  0.11046989    -0.52300
C139        C  0.25590374  0.32694399  0.11375701     0.71100
O140        O  0.25232519  0.33221210  0.17442921    -0.73800
O141        O  0.25157698  0.29578576  0.19059996    -0.54400
C142        C  0.25128734  0.32255554  0.18712423     0.77100
O143        O  0.32673199  0.24895952  0.12454069    -0.58900
O144        O  0.28972483  0.25214350  0.10887326    -0.52100
C145        C  0.31641538  0.25048356  0.11196369     0.73700
Zr146      Zr  0.30799760  0.24749898  0.14857408     2.54700
O147        O  0.34861092  0.28080081  0.14932291    -0.79500
O148        O  0.33755119  0.20482894  0.14607567    -0.92900
Zr149      Zr  0.25500580  0.31421886  0.15031386     2.64700
O150        O  0.29676858  0.34588283  0.15248352    -0.97900
O151        O  0.22243285  0.35482481  0.14968722    -0.79900
O152        O  0.28259641  0.28030157  0.16320284    -0.83300
O153        O  0.28172123  0.28240347  0.13602474    -2.18000
O154        O  0.23639275  0.17582069  0.12401312    -0.66700
O155        O  0.24273051  0.21298733  0.10882826    -0.51200
C156        C  0.23803787  0.18629454  0.11145512     0.72100
O157        O  0.16902491  0.25435563  0.17339680    -0.59600
O158        O  0.20464757  0.25169734  0.18988628    -0.51600
C159        C  0.17800602  0.25207740  0.18616697     0.73900
O160        O  0.16757513  0.26148545  0.12599233    -0.71000
O161        O  0.20350918  0.26096389  0.10971728    -0.49700
C162        C  0.17700962  0.26172555  0.11321529     0.75300
O163        O  0.24121852  0.17234974  0.17178724    -0.66300
O164        O  0.24578375  0.20631676  0.18903767    -0.53500
C165        C  0.24303974  0.18004209  0.18482780     0.73700
Zr166      Zr  0.24114533  0.19372834  0.14832728     2.77500
O167        O  0.19891753  0.16253170  0.14847606    -0.97100
O168        O  0.27381162  0.15324989  0.14745311    -0.77900
Zr169      Zr  0.18833348  0.26036206  0.14980651     2.70100
O170        O  0.14414545  0.23214190  0.14881275    -0.79100
O171        O  0.16075475  0.30447197  0.15168898    -0.98200
Zr172      Zr  0.24967785  0.25184865  0.17664533     2.21500
Zr173      Zr  0.24707902  0.25585378  0.12289550     2.11100
O174        O  0.21355008  0.22734555  0.13561285    -2.46900
O175        O  0.21511840  0.22595172  0.16276790    -0.78900
O176        O  0.27452812  0.22082744  0.13486652    -0.71100
O177        O  0.22197861  0.28622911  0.16379645    -2.32100
O178        O  0.27568387  0.21920511  0.16212003    -2.28300
O179        O  0.22041825  0.28916017  0.13647250    -0.72900
H180        H  0.29444102  0.29328535  0.12998042     0.79100
H181        H  0.21117365  0.29830412  0.17014905     0.80200
H182        H  0.20043709  0.21731925  0.12939891     0.82400
H183        H  0.28644436  0.20585661  0.16777942     0.80000
H184        H  0.20318585  0.34613796  0.15106808     0.43100
H185        H  0.14098797  0.29862431  0.14904524     0.42000
H186        H  0.15050597  0.21226296  0.14683754     0.41700
H187        H  0.18472984  0.17240977  0.14247276     0.39700
H188        H  0.29174223  0.16139768  0.14348542     0.42800
H189        H  0.33640091  0.19508277  0.15532513     0.37600
H190        H  0.36566325  0.26832593  0.14993529     0.43700
H191        H  0.28945793  0.36527304  0.15020157     0.40100
H192        H  0.20450903  0.14536163  0.14294164     0.45000
H193        H  0.35745442  0.21236440  0.14557501     0.43700
H194        H  0.30109327  0.34675048  0.16269941     0.43900
H195        H  0.15968281  0.30848143  0.16192932     0.44200
O196        O  0.49537655  0.42043726  0.67311042    -0.74600
O197        O  0.49400915  0.45648942  0.68957792    -0.53500
C198        C  0.49495759  0.42967379  0.68588746     0.79100
O199        O  0.07803255  0.01334890  0.62527773    -0.59200
O200        O  0.04313570  0.00221682  0.60947580    -0.52300
C201        C  0.06878167  0.00990659  0.61248897     0.71100
O202        O  0.07801257  0.00331644  0.67337067    -0.73800
O203        O  0.04301058  0.00315713  0.69012687    -0.54400
C204        C  0.06958285  0.00254932  0.68629420     0.77100
O205        O  0.49445476  0.41712888  0.62589268    -0.58900
O206        O  0.49549916  0.45284697  0.60941396    -0.52100
C207        C  0.49489789  0.42627912  0.61310158     0.73700
Zr208      Zr  0.49425724  0.43921286  0.64932230     2.54700
O209        O  0.02648190  0.40273513  0.64777045    -0.79500
O210        O  0.45547459  0.40371259  0.65023256    -0.92900
Zr211      Zr  0.05936429  0.00373309  0.64936021     2.64700
O212        O  0.08788546  0.46003730  0.64731733    -0.97900
O213        O  0.10052087  0.03603585  0.65182849    -0.79900
O214        O  0.02524337  0.47232956  0.66278463    -0.83300
O215        O  0.02625838  0.47135025  0.63546934    -2.18000
O216        O  0.42017710  0.00195723  0.62409544    -0.66700
O217        O  0.45628355  0.00430848  0.60823829    -0.51200
C218        C  0.42967110  0.00179417  0.61128947     0.72100
O219        O  0.50643266  0.08422710  0.67172433    -0.59600
O220        O  0.50402353  0.04985891  0.68887322    -0.51600
C221        C  0.50540873  0.07633147  0.68469439     0.73900
O222        O  0.50919689  0.08228153  0.62446890    -0.71000
O223        O  0.50461228  0.04528400  0.60875790    -0.49700
C224        C  0.50770934  0.07206641  0.61184138     0.75300
O225        O  0.41872715  0.01380410  0.67159540    -0.66300
O226        O  0.45312116  0.01138678  0.68856941    -0.53500
C227        C  0.42673310  0.01408867  0.68457821     0.73700
Zr228      Zr  0.43928983  0.01077040  0.64810391     2.77500
O229        O  0.41348230  0.05576812  0.64528015    -0.97100
O230        O  0.39615326  0.47056119  0.64900070    -0.77900
Zr231      Zr  0.50776704  0.06252913  0.64830818     2.70100
O232        O  0.47882340  0.10586282  0.64769722    -0.79100
O233        O  0.04057789  0.09652198  0.64990429    -0.98200
Zr234      Zr  0.49875153  0.00370453  0.67614872     2.21500
Zr235      Zr  0.49913335  0.00158666  0.62203463     2.11100
O236        O  0.47302591  0.03706070  0.63463608    -2.46900
O237        O  0.47311998  0.03728013  0.66195799    -0.78900
O238        O  0.46566077  0.46891591  0.63483926    -0.71100
O239        O  0.02942823  0.03453157  0.66294259    -2.32100
O240        O  0.46496491  0.47164835  0.66221650    -2.28300
O241        O  0.03048897  0.03386161  0.63541203    -0.72900
H242        H  0.03740572  0.45932450  0.62923895     0.79100
H243        H  0.04115676  0.04668682  0.66895541     0.80200
H244        H  0.46310585  0.04981061  0.62829245     0.82400
H245        H  0.45220292  0.46088074  0.66828804     0.80000
H246        H  0.09569281  0.05299366  0.64602368     0.43100
H247        H  0.05448284  0.08867082  0.64305521     0.42000
H248        H  0.49231811  0.12168353  0.65019175     0.41700
H249        H  0.42689237  0.07085198  0.64876808     0.39700
H250        H  0.40438881  0.45104226  0.64969559     0.42800
H251        H  0.44551268  0.40545973  0.64105530     0.37600
H252        H  0.01493041  0.38591181  0.65087138     0.43700
H253        H  0.07602701  0.44380219  0.65084411     0.40100
H254        H  0.41245142  0.05889103  0.63497395     0.45000
H255        H  0.44175918  0.41151352  0.65719075     0.43700
H256        H  0.08977761  0.45623369  0.63708871     0.43900
H257        H  0.03369104  0.11452949  0.64554963     0.44200
O258        O  0.08088044  0.00752141  0.32816492    -0.74600
O259        O  0.04598178  0.99977725  0.31152754    -0.53500
C260        C  0.07225673  0.00363687  0.31543609     0.79100
O261        O  0.50855362  0.42028322  0.37623850    -0.59200
O262        O  0.50454948  0.45704596  0.39211035    -0.52300
C263        C  0.50768375  0.43029023  0.38893571     0.71100
O264        O  0.50443765  0.41949398  0.32854307    -0.73800
O265        O  0.49991489  0.45407083  0.31170455    -0.54400
C266        C  0.50156561  0.42762001  0.31561465     0.77100
O267        O  0.07916862  0.01688854  0.37562210    -0.58900
O268        O  0.04391721  0.00567156  0.39105287    -0.52100
C269        C  0.06964042  0.01347522  0.38830713     0.73700
Zr270      Zr  0.06025371  0.00932438  0.35150698     2.54700
O271        O  0.09495377  0.46710473  0.35453632    -0.79500
O272        O  0.08749641  0.05408973  0.34926421    -0.92900
Zr273      Zr  0.50744293  0.44037739  0.35234366     2.64700
O274        O  0.03923246  0.40691536  0.35121803    -0.97900
O275        O  0.48229817  0.39432460  0.35293935    -0.79900
O276        O  0.02787136  0.46982188  0.33879486    -0.83300
O277        O  0.02775991  0.47001310  0.36602116    -2.18000
O278        O  0.50458559  0.07942113  0.37559400    -0.66700
O279        O  0.50317803  0.04334055  0.39189373    -0.51200
C280        C  0.50577699  0.06992909  0.38833347     0.72100
O281        O  0.41700502  0.99811252  0.32847727    -0.59600
O282        O  0.45248246  0.99736106  0.31189646    -0.51600
C283        C  0.42581313  0.99762964  0.31558630     0.73900
O284        O  0.41712915  0.99669691  0.37666363    -0.71000
O285        O  0.45330003  0.00262054  0.39249038    -0.49700
C286        C  0.42667130  0.99961769  0.38941603     0.75300
O287        O  0.49251667  0.07754125  0.32821360    -0.66300
O288        O  0.49663280  0.04179650  0.31175466    -0.53500
C289        C  0.49334516  0.06835203  0.31538546     0.73700
Zr290      Zr  0.49830084  0.05834888  0.35201153     2.77500
O291        O  0.46132661  0.09482625  0.35416731    -0.97100
O292        O  0.02656609  0.09962466  0.34957071    -0.77900
Zr293      Zr  0.43679423  0.99848265  0.35241879     2.70100
O294        O  0.40367680  0.03866545  0.35328579    -0.79100
O295        O  0.40727461  0.45039397  0.35157424    -0.98200
Zr296      Zr  0.49784031  0.99695048  0.32509173     2.21500
Zr297      Zr  0.49660811  0.99856440  0.37906811     2.11100
O298        O  0.46682040  0.02961823  0.36581266    -2.46900
O299        O  0.46758273  0.02795554  0.33848170    -0.78900
O300        O  0.02638592  0.03560373  0.36457237    -0.71100
O301        O  0.47251512  0.46528368  0.33891029    -2.32100
O302        O  0.02653909  0.03373781  0.33709093    -2.28300
O303        O  0.47264447  0.46549790  0.36585109    -0.72900
H304        H  0.03968414  0.45906423  0.37234263     0.79100
H305        H  0.46173167  0.45202248  0.33304090     0.80200
H306        H  0.45555672  0.04167440  0.37194577     0.82400
H307        H  0.03672431  0.04661474  0.33084968     0.80000
H308        H  0.46215343  0.39946078  0.35492885     0.43100
H309        H  0.41997938  0.43373379  0.35310393     0.42000
H310        H  0.40113068  0.04458395  0.34335314     0.41700
H311        H  0.45083088  0.08999317  0.36291489     0.39700
H312        H  0.01464506  0.11686230  0.34802557     0.42800
H313        H  0.10779042  0.04804357  0.34902094     0.37600
H314        H  0.09198611  0.45391167  0.34642975     0.43700
H315        H  0.05181699  0.41545362  0.34391315     0.40100
H316        H  0.47193362  0.11282035  0.35646841     0.45000
H317        H  0.08533478  0.06389186  0.35848453     0.43700
H318        H  0.04965924  0.41028220  0.36018140     0.43900
H319        H  0.39551053  0.45147094  0.36023195     0.44200
N320        N  0.99846482  0.25051017  0.52166301    -0.36000
N321        N  0.99919341  0.20509722  0.50020544    -0.56500
N322        N  0.99226704  0.24937748  0.47929385    -0.35900
N323        N  0.99140778  0.29470927  0.50089300    -0.56500
C324        C  0.00744867  0.22768462  0.52925164     0.27600
C325        C  0.00358392  0.27433429  0.52962951     0.27600
C326        C  0.98870689  0.22564604  0.47106087     0.27600
C327        C  0.98486426  0.27234823  0.47138397     0.27600
C328        C  0.00013887  0.18812595  0.51170644     0.36300
C329        C  0.99833932  0.18747057  0.48884767     0.36300
C330        C  0.98986189  0.31194348  0.51238582     0.36300
C331        C  0.98805805  0.31166249  0.48949230     0.36300
C332        C  0.01863236  0.23710832  0.54203629    -0.21200
C333        C  0.01630355  0.26649509  0.54225169    -0.21200
C334        C  0.97877154  0.23374718  0.45788109    -0.21200
C335        C  0.97642246  0.26310258  0.45807454    -0.21200
C336        C  0.99961304  0.15940543  0.50766342    -0.22300
C337        C  0.99929293  0.15900274  0.49315737    -0.22300
C338        C  0.98483723  0.34005374  0.50825408    -0.22300
C339        C  0.98451832  0.34000440  0.49373938    -0.22300
C340        C  0.00341141  0.19831300  0.52568752    -0.17600
C341        C  0.99527750  0.30283091  0.52638439    -0.17600
C342        C  0.98681439  0.30173372  0.47537019    -0.17600
C343        C  0.99483820  0.19676926  0.47475765    -0.17600
H344        H  0.02714009  0.22405007  0.55046871     0.15300
H345        H  0.02274753  0.28048435  0.55086867     0.15300
H346        H  0.97372821  0.21992588  0.44898430     0.15300
H347        H  0.96931718  0.27620218  0.44934664     0.15300
H348        H  0.00015975  0.14068125  0.51441099     0.13600
H349        H  0.99891524  0.13989219  0.48659783     0.13600
H350        H  0.98249623  0.35881736  0.51493348     0.13600
H351        H  0.98127818  0.35861660  0.48711620     0.13600
H352        H  0.98593020  0.24936729  0.51260082     0.26800
H353        H  0.00232355  0.25032835  0.48904685     0.26800
N354        N  0.24834883  0.50209567  0.52167846    -0.36000
N355        N  0.20280621  0.50862786  0.50106276    -0.56500
N356        N  0.24507028  0.50128846  0.47869169    -0.35900
N357        N  0.29021299  0.49176388  0.49934068    -0.56500
C358        C  0.22513627  0.50126454  0.53021113     0.27600
C359        C  0.27086017  0.49250859  0.52927436     0.27600
C360        C  0.22091863  0.50220586  0.47082460     0.27600
C361        C  0.26695516  0.49492555  0.46992091     0.27600
C362        C  0.18750002  0.51471575  0.51275308     0.36300
C363        C  0.18551218  0.51357610  0.48992026     0.36300
C364        C  0.30826848  0.49271012  0.51047690     0.36300
C365        C  0.30670762  0.49312565  0.48766073     0.36300
C366        C  0.23310618  0.49132470  0.54341261    -0.21200
C367        C  0.26192921  0.48593100  0.54283912    -0.21200
C368        C  0.22767947  0.49664887  0.45682311    -0.21200
C369        C  0.25663563  0.49218122  0.45625411    -0.21200
C370        C  0.16015589  0.52336989  0.50903764    -0.22300
C371        C  0.15884789  0.52249422  0.49455500    -0.22300
C372        C  0.33643991  0.49380872  0.50587735    -0.22300
C373        C  0.33545611  0.49401399  0.49139906    -0.22300
C374        C  0.19714087  0.51036628  0.52671780    -0.17600
C375        C  0.29970108  0.49176331  0.52473558    -0.17600
C376        C  0.29627417  0.49320683  0.47365207    -0.17600
C377        C  0.19307980  0.50924063  0.47564170    -0.17600
H378        H  0.21962915  0.48850456  0.55259517     0.15300
H379        H  0.27486099  0.47831428  0.55151554     0.15300
H380        H  0.21338511  0.49638278  0.44782351     0.15300
H381        H  0.26870433  0.48783995  0.44675891     0.15300
H382        H  0.14280960  0.52916132  0.51603364     0.13600
H383        H  0.14036685  0.52771366  0.48817317     0.13600
H384        H  0.35566701  0.49448371  0.51228067     0.13600
H385        H  0.35379582  0.49498243  0.48443161     0.13600
H386        H  0.24957571  0.51212541  0.51195501     0.26800
H387        H  0.24695054  0.50725651  0.48913488     0.26800
C388        C  0.49886031  0.24683305  0.25141222    -0.01800
C389        C  0.00779975  0.38240616  0.28182184    -0.04800
C390        C  0.49989820  0.35562339  0.28643635     0.09300
C391        C  0.48205344  0.35575175  0.29843815    -0.02200
C392        C  0.48136192  0.38003998  0.30739198    -0.00500
C393        C  0.49912124  0.40430169  0.30471446    -0.04100
C394        C  0.00608170  0.40618046  0.29117689     0.02900
C395        C  0.50039659  0.32949915  0.27696906     0.09800
C396        C  0.46368981  0.33110918  0.30139665     0.35700
C397        C  0.01844208  0.43357501  0.28693531     0.39100
C398        C  0.02130541  0.31305065  0.27540426    -0.04400
C399        C  0.02214747  0.28721348  0.26731464     0.02700
C400        C  0.49857267  0.27661743  0.26038457    -0.04000
C401        C  0.47689686  0.29882317  0.25922373    -0.00300
C402        C  0.47727313  0.32362419  0.26800134    -0.02800
C403        C  0.04576178  0.32195910  0.28394345     0.36400
C404        C  0.45538494  0.29991794  0.24826321     0.40000
C405        C  0.04796594  0.27044467  0.26892993     0.39200
C406        C  0.45395143  0.34428792  0.26746035     0.36100
C407        C  0.02265149  0.38532279  0.26846957     0.36800
C408        C  0.46037887  0.38100358  0.31866380     0.40000
N409        N  0.06954531  0.25906319  0.27095736    -0.38000
N410        N  0.06528132  0.32930563  0.29064080    -0.39600
N411        N  0.43782173  0.30301562  0.23979936    -0.37400
N412        N  0.43543870  0.36069427  0.26710375    -0.39800
N413        N  0.44864652  0.31173994  0.30371686    -0.39500
N414        N  0.44309930  0.38182591  0.32739446    -0.37200
N415        N  0.02804277  0.45541938  0.28333201    -0.38200
N416        N  0.03439396  0.38759014  0.25778622    -0.39900
C417        C  0.46552324  0.13260793  0.29465427    -0.04800
C418        C  0.48839807  0.13776099  0.28519733     0.09300
C419        C  0.01353348  0.11749419  0.28332894    -0.02200
C420        C  0.01171531  0.09259502  0.29182072    -0.00500
C421        C  0.49032200  0.09044461  0.30409265    -0.04100
C422        C  0.46644156  0.10902045  0.30402666     0.02900
C423        C  0.48973031  0.16528940  0.27682044     0.09800
C424        C  0.03851655  0.12192662  0.27448837     0.35700
C425        C  0.44230527  0.10314593  0.31324632     0.39100
C426        C  0.99665759  0.19254030  0.28250077    -0.04400
C427        C  0.99627037  0.21887152  0.27492585     0.02700
C428        C  0.49526078  0.21837904  0.26093142    -0.04000
C429        C  0.49148367  0.19046277  0.25421430    -0.00300
C430        C  0.48649878  0.16508228  0.26214514    -0.02800
C431        C  0.99925011  0.19273673  0.29780317     0.36400
C432        C  0.49473018  0.18615368  0.23916066     0.40000
C433        C  0.99270911  0.24425609  0.28359275     0.39200
C434        C  0.47852272  0.13825294  0.25514538     0.36100
C435        C  0.44120570  0.15186560  0.29480674     0.36800
C436        C  0.03207221  0.06950487  0.28984691     0.40000
N437        N  0.98926175  0.26323251  0.29133184    -0.38000
N438        N  0.00107709  0.19275915  0.30997275    -0.39600
N439        N  0.49743237  0.18020800  0.22738195    -0.37400
N440        N  0.47202089  0.11687103  0.24964286    -0.39800
N441        N  0.05870874  0.12506106  0.26756183    -0.39500
N442        N  0.04767864  0.05067164  0.28791692    -0.37200
N443        N  0.42294511  0.09811841  0.32048174    -0.38200
N444        N  0.42196654  0.16742876  0.29489444    -0.39900
C445        C  0.97577948  0.13757952  0.44795262    -0.04800
C446        C  0.99731627  0.14203565  0.43765043     0.09300
C447        C  0.01925236  0.16267862  0.44033249    -0.02200
C448        C  0.01988429  0.17801549  0.45318644    -0.00500
C449        C  0.99693679  0.17546412  0.46283777    -0.04100
C450        C  0.97462186  0.15544519  0.46003372     0.02900
C451        C  0.51887411  0.12462809  0.42465276     0.09800
C452        C  0.04083690  0.16884749  0.42971588     0.35700
C453        C  0.94982444  0.15416402  0.46921269     0.39100
C454        C  0.49413526  0.12801400  0.41613424    -0.04400
C455        C  0.48990913  0.11054292  0.40406244     0.02700
C456        C  0.51115261  0.09083903  0.39992775    -0.04000
C457        C  0.02150865  0.09537860  0.40669199    -0.00300
C458        C  0.02055882  0.10829473  0.42009019    -0.02800
C459        C  0.47284258  0.14930659  0.41985581     0.36400
C460        C  0.04868002  0.08621665  0.40092422     0.40000
C461        C  0.46346779  0.11249096  0.39607462     0.39200
C462        C  0.04372020  0.10322436  0.42996402     0.36100
C463        C  0.48163773  0.11420074  0.44857909     0.36800
C464        C  0.04390103  0.19710022  0.45635234     0.40000
N465        N  0.44226888  0.11417271  0.38978725    -0.38000
N466        N  0.45578746  0.16620857  0.42283830    -0.39600
N467        N  0.07053403  0.08041500  0.39597302    -0.37400
N468        N  0.06215927  0.09913777  0.43785917    -0.39800
N469        N  0.05814110  0.17352621  0.42127168    -0.39500
N470        N  0.06316799  0.21214432  0.45889869    -0.37200
N471        N  0.92996198  0.15333668  0.47650317    -0.38200
N472        N  0.46484288  0.09572962  0.44790935    -0.39900
C473        C  0.00862775  0.40034641  0.42608416    -0.04800
C474        C  0.99134185  0.37535106  0.42601831     0.09300
C475        C  0.49601050  0.36600835  0.41354980    -0.02200
C476        C  0.49425670  0.38403272  0.40158075    -0.00500
C477        C  0.51069195  0.40981129  0.40094682    -0.04100
C478        C  0.01253003  0.41621366  0.41362748     0.02900
C479        C  0.98993003  0.35701320  0.43893235     0.09800
C480        C  0.48039256  0.33884370  0.41383225     0.35700
C481        C  0.03403376  0.43885160  0.41353014     0.39100
C482        C  0.48965870  0.35599097  0.44760758    -0.04400
C483        C  0.49020815  0.33890334  0.45988533     0.02700
C484        C  0.98826889  0.32297623  0.46357666    -0.04000
C485        C  0.01350063  0.32445722  0.45534930    -0.00300
C486        C  0.01417323  0.34103477  0.44297338    -0.02800
C487        C  0.46491126  0.37360609  0.44456205     0.36400
C488        C  0.03853612  0.30804345  0.45939363     0.40000
C489        C  0.46461877  0.33580919  0.46842090     0.39200
C490        C  0.03970802  0.34132961  0.43423081     0.36100
C491        C  0.02212436  0.41000872  0.43910770     0.36800
C492        C  0.47459354  0.37655879  0.39026286     0.40000
N493        N  0.44421755  0.33328400  0.47525351    -0.38000
N494        N  0.44544037  0.38804765  0.44213222    -0.39600
N495        N  0.05840548  0.29480374  0.46258282    -0.37400
N496        N  0.06002123  0.34169337  0.42723631    -0.39800
N497        N  0.46799150  0.31713232  0.41402456    -0.39500
N498        N  0.45866970  0.37053577  0.38133509    -0.37200
N499        N  0.05198160  0.45615335  0.41385116    -0.38200
N500        N  0.03267703  0.41781701  0.44950852    -0.39900
C501        C  0.14936704  0.05414790  0.44466866    -0.04800
C502        C  0.13743729  0.51321395  0.43977060     0.09300
C503        C  0.14065805  0.48699100  0.44703472    -0.02200
C504        C  0.15710938  0.48611978  0.45946089    -0.00500
C505        C  0.17044095  0.51146486  0.46462343    -0.04100
C506        C  0.16551800  0.05447632  0.45725668     0.02900
C507        C  0.11974360  0.51394579  0.42669299     0.09800
C508        C  0.12709710  0.46092091  0.44164713     0.35700
C509        C  0.17359873  0.08165224  0.46379247     0.39100
C510        C  0.13669597  0.02334527  0.41174409    -0.04400
C511        C  0.11926977  0.01956228  0.39964401     0.02700
C512        C  0.08885311  0.01903834  0.40088622    -0.04000
C513        C  0.07275923  0.51829540  0.41575378    -0.00300
C514        C  0.09041603  0.51979067  0.42776480    -0.02800
C515        C  0.16770425  0.02300316  0.41050684     0.36400
C516        C  0.04259009  0.52477695  0.41770107     0.40000
C517        C  0.13310264  0.01550982  0.38610188     0.39200
C518        C  0.07828262  0.52662437  0.44147885     0.36100
C519        C  0.14017758  0.08095680  0.43838332     0.36800
C520        C  0.16117984  0.45900421  0.46670536     0.40000
N521        N  0.14437586  0.01243075  0.37534462    -0.38000
N522        N  0.19243076  0.02266600  0.40951151    -0.39600
N523        N  0.01867716  0.52983158  0.41969814    -0.37400
N524        N  0.06877710  0.53197477  0.45243179    -0.39800
N525        N  0.11618671  0.44018915  0.43733713    -0.39500
N526        N  0.16440144  0.43735997  0.47248037    -0.37200
N527        N  0.18023734  0.10331481  0.46898027    -0.38200
N528        N  0.13279478  0.10233635  0.43336984    -0.39900
C529        C  0.35487349  0.03167727  0.44728641    -0.04800
C530        C  0.35085199  0.00777363  0.43821117     0.09300
C531        C  0.34065488  0.46503981  0.44303634    -0.02200
C532        C  0.32289439  0.46565880  0.45501730    -0.00500
C533        C  0.31732720  0.49206967  0.46185603    -0.04100
C534        C  0.33897422  0.03377755  0.45987979     0.02900
C535        C  0.36929349  0.00446899  0.42543962     0.09800
C536        C  0.34593747  0.43801820  0.43581273     0.35700
C537        C  0.34242102  0.05876441  0.46896027     0.39100
C538        C  0.40068201  0.48079706  0.42679240    -0.04400
C539        C  0.41878111  0.47951151  0.41493721     0.02700
C540        C  0.40601997  0.99982347  0.40161093    -0.04000
C541        C  0.37770295  0.01054508  0.40013379    -0.00300
C542        C  0.35939005  0.01243864  0.41198242    -0.02800
C543        C  0.41122814  0.47251718  0.44060255     0.36400
C544        C  0.36735039  0.02063587  0.38662356     0.40000
C545        C  0.44696315  0.46700557  0.41668342     0.39200
C546        C  0.33022872  0.02254580  0.41037234     0.36100
C547        C  0.37541719  0.05406677  0.44361910     0.36800
C548        C  0.30929471  0.43936175  0.45996297     0.40000
N549        N  0.46923210  0.45680408  0.41839428    -0.38000
N550        N  0.41936429  0.46595058  0.45165446    -0.39600
N551        N  0.35873620  0.02874046  0.37591519    -0.37400
N552        N  0.30686957  0.03032260  0.40908275    -0.39800
N553        N  0.35031331  0.41655056  0.43000038    -0.39500
N554        N  0.29821224  0.41843302  0.46382866    -0.37200
N555        N  0.34522654  0.07869149  0.47621532    -0.38200
N556        N  0.39191054  0.07183007  0.44068148    -0.39900
C557        C  0.09386022  0.02356845  0.57462738    -0.04800
C558        C  0.12367948  0.51399772  0.57601090     0.09300
C559        C  0.13458324  0.50516201  0.58914870    -0.02200
C560        C  0.11655314  0.50405253  0.60112914    -0.00500
C561        C  0.08828449  0.01481271  0.60009693    -0.04100
C562        C  0.07650692  0.02261852  0.58673004     0.02900
C563        C  0.14205515  0.51359780  0.56310893     0.09800
C564        C  0.16431123  0.49647128  0.59019411     0.35700
C565        C  0.04646291  0.02970145  0.58496313     0.39100
C566        C  0.14838049  0.04556867  0.55641803    -0.04400
C567        C  0.16385707  0.04642571  0.54369571     0.02700
C568        C  0.17619880  0.51285992  0.53854806    -0.04000
C569        C  0.15702107  0.48989476  0.54131679    -0.00300
C570        C  0.13976952  0.49040708  0.55348291    -0.02800
C571        C  0.14048295  0.07219095  0.56339048     0.36400
C572        C  0.15577819  0.46533836  0.53182642     0.40000
C573        C  0.17107188  0.07381994  0.53724057     0.39200
C574        C  0.11957642  0.46709506  0.55609786     0.36100
C575        C  0.08121296  0.02957418  0.56092769     0.36800
C576        C  0.12850303  0.49448434  0.61441700     0.40000
N577        N  0.17685184  0.09557397  0.53199355    -0.38000
N578        N  0.13427125  0.09339483  0.56901056    -0.39600
N579        N  0.15499688  0.44584931  0.52418996    -0.37400
N580        N  0.10330208  0.44859770  0.55810751    -0.39800
N581        N  0.18802377  0.48951346  0.59096615    -0.39500
N582        N  0.13833465  0.48699795  0.62498244    -0.37200
N583        N  0.02268515  0.03511879  0.58284746    -0.38200
N584        N  0.07117100  0.03425210  0.55001823    -0.39900
C585        C  0.35110020  0.02562374  0.55583981    -0.04800
C586        C  0.35239523  0.99883192  0.56276240     0.09300
C587        C  0.34883164  0.46532419  0.55387796    -0.02200
C588        C  0.33103379  0.46516916  0.54185608    -0.00500
C589        C  0.32212463  0.49143692  0.53592851    -0.04100
C590        C  0.33492169  0.02845632  0.54338318     0.02900
C591        C  0.37099482  0.99593845  0.57551873     0.09800
C592        C  0.35789364  0.43836869  0.56006586     0.35700
C593        C  0.33328409  0.05618226  0.53645923     0.39100
C594        C  0.36057668  0.00345585  0.58893689    -0.04400
C595        C  0.37929611  0.00482252  0.60066484     0.02700
C596        C  0.40896089  0.99852478  0.59908116    -0.04000
C597        C  0.42265946  0.48830369  0.58404818    -0.00300
C598        C  0.40514018  0.48689310  0.57197303    -0.02800
C599        C  0.33056413  0.01076749  0.59051759     0.36400
C600        C  0.45304398  0.48283416  0.58206676     0.40000
C601        C  0.36777233  0.01407784  0.61411609     0.39200
C602        C  0.41758062  0.48037239  0.55828856     0.36100
C603        C  0.36567597  0.05050966  0.56189378     0.36800
C604        C  0.32103971  0.43811581  0.53584416     0.40000
N605        N  0.35836878  0.02149979  0.62479987    -0.38000
N606        N  0.30663176  0.01664320  0.59172521    -0.39600
N607        N  0.47713872  0.47836950  0.58025816    -0.37400
N608        N  0.42751079  0.47507233  0.54742131    -0.39800
N609        N  0.36534894  0.41691705  0.56497828    -0.39500
N610        N  0.31296436  0.41655960  0.53104603    -0.37200
N611        N  0.33189605  0.07834269  0.53097024    -0.38200
N612        N  0.37709693  0.07026280  0.56692784    -0.39900
C613        C  0.02032674  0.13227878  0.58694481    -0.04800
C614        C  0.51761488  0.12570019  0.57521360     0.09300
C615        C  0.49646879  0.10383580  0.57549876    -0.02200
C616        C  0.49183350  0.08794212  0.58785831    -0.00500
C617        C  0.50974573  0.09223503  0.59976980    -0.04100
C618        C  0.01993332  0.11456699  0.59898600     0.02900
C619        C  0.00160575  0.14485737  0.56274211     0.09800
C620        C  0.47951696  0.09753033  0.56297489     0.35700
C621        C  0.04193199  0.11815803  0.60969099     0.39100
C622        C  0.02463744  0.14249208  0.55315885    -0.04400
C623        C  0.02513868  0.15932914  0.54081716     0.02700
C624        C  0.00200161  0.17767496  0.53771919    -0.04000
C625        C  0.50063403  0.17773718  0.54565166    -0.00300
C626        C  0.49868081  0.16230605  0.55831936    -0.02800
C627        C  0.04771550  0.12258190  0.55599075     0.36400
C628        C  0.47655421  0.19496262  0.54107236     0.40000
C629        C  0.04963198  0.15811582  0.53145192     0.39200
C630        C  0.47401093  0.16607202  0.56745382     0.36100
C631        C  0.04083388  0.15589188  0.58603407     0.36800
C632        C  0.46786744  0.06784964  0.58830886     0.40000
N633        N  0.06912433  0.15695099  0.52394360    -0.38000
N634        N  0.06607972  0.10670471  0.55833910    -0.39600
N635        N  0.45728192  0.20861752  0.53745647    -0.37400
N636        N  0.45448009  0.16905681  0.57481209    -0.39800
N637        N  0.46595988  0.09258191  0.55301237    -0.39500
N638        N  0.44835674  0.05230391  0.58836787    -0.37200
N639        N  0.05965947  0.12101183  0.61814305    -0.38200
N640        N  0.05725584  0.17468738  0.58537788    -0.39900
C641        C  0.47853048  0.39042511  0.57833810    -0.04800
C642        C  0.99137427  0.37764847  0.57610393     0.09300
C643        C  0.01531868  0.37818245  0.58532127    -0.02200
C644        C  0.01541105  0.39634430  0.59727044    -0.00500
C645        C  0.49585412  0.40496465  0.60155730    -0.04100
C646        C  0.47428832  0.40497017  0.59116079     0.02900
C647        C  0.99162504  0.35936721  0.56298553     0.09800
C648        C  0.04004729  0.36041620  0.58244610     0.35700
C649        C  0.44687246  0.41805404  0.59411220     0.39100
C650        C  0.01115635  0.36535395  0.55196957    -0.04400
C651        C  0.01273838  0.34691008  0.54011652     0.02700
C652        C  0.99302273  0.32376342  0.53851974    -0.04000
C653        C  0.48834389  0.31761653  0.54741136    -0.00300
C654        C  0.48582578  0.33317733  0.56008903    -0.02800
C655        C  0.02976191  0.39050780  0.55289375     0.36400
C656        C  0.46684104  0.29602946  0.54375783     0.40000
C657        C  0.03551042  0.35104882  0.52991952     0.39200
C658        C  0.46297669  0.32609873  0.56990840     0.36100
C659        C  0.45858925  0.39459395  0.56678041     0.36800
C660        C  0.04127034  0.39996686  0.60565532     0.40000
N661        N  0.05375757  0.35437949  0.52181692    -0.38000
N662        N  0.04454438  0.41060206  0.55375055    -0.39600
N663        N  0.44958511  0.27892717  0.54085489    -0.37400
N664        N  0.44476996  0.32064008  0.57776484    -0.39800
N665        N  0.05989885  0.34638618  0.58016854    -0.39500
N666        N  0.06180447  0.40338993  0.61234635    -0.37200
N667        N  0.42455583  0.42742473  0.59662336    -0.38200
N668        N  0.44283246  0.39803350  0.55751477    -0.39900
C669        C  0.10840177  0.23064674  0.20444895    -0.04800
C670        C  0.10751786  0.25056560  0.21573539     0.09300
C671        C  0.13134876  0.26899308  0.21815710    -0.02200
C672        C  0.15506431  0.26874185  0.20887600    -0.00500
C673        C  0.15531468  0.24978569  0.19718198    -0.04100
C674        C  0.13225171  0.23006193  0.19531758     0.02900
C675        C  0.08182442  0.25116598  0.22534206     0.09800
C676        C  0.13153896  0.28814790  0.23026287     0.35700
C677        C  0.13338547  0.20850534  0.18420501     0.39100
C678        C  0.07736008  0.22892832  0.23501798    -0.04400
C679        C  0.05245888  0.22803873  0.24355464     0.02700
C680        C  0.02943615  0.24869639  0.24176005    -0.04000
C681        C  0.03657705  0.27298193  0.23289661    -0.00300
C682        C  0.06209141  0.27373969  0.22474280    -0.02800
C683        C  0.09955908  0.20728935  0.23658345     0.36400
C684        C  0.01722148  0.29690915  0.23094606     0.40000
C685        C  0.05415193  0.20775815  0.25513835     0.39200
C686        C  0.06751624  0.29741245  0.21509481     0.36100
C687        C  0.08474434  0.21057841  0.20224801     0.36800
C688        C  0.17881227  0.28856976  0.21119780     0.40000
N689        N  0.05716028  0.19171822  0.26432821    -0.38000
N690        N  0.11727193  0.19018876  0.23782362    -0.39600
N691        N  0.50509472  0.31695717  0.23100765    -0.37400
N692        N  0.07182406  0.31628794  0.20742636    -0.39800
N693        N  0.13184035  0.30346677  0.23991422    -0.39500
N694        N  0.19778818  0.30431287  0.21316886    -0.37200
N695        N  0.13433890  0.19116557  0.17542418    -0.38200
N696        N  0.06604907  0.19435895  0.20053475    -0.39900
C697        C  0.38571839  0.27009078  0.20727649    -0.04800
C698        C  0.39517803  0.24399932  0.21327111     0.09300
C699        C  0.38028685  0.21814464  0.20996855    -0.02200
C700        C  0.35597898  0.21845184  0.20097995    -0.00500
C701        C  0.34639296  0.24463876  0.19512153    -0.04100
C702        C  0.36211488  0.27021246  0.19790878     0.02900
C703        C  0.42144583  0.24349088  0.22263272     0.09800
C704        C  0.39053997  0.19108708  0.21557256     0.35700
C705        C  0.35492423  0.29651484  0.19052322     0.39100
C706        C  0.41877430  0.23958564  0.23722219    -0.04400
C707        C  0.44324065  0.24027188  0.24616463     0.02700
C708        C  0.47198889  0.24437785  0.24066735    -0.04000
C709        C  0.47388560  0.24430249  0.22541099    -0.00300
C710        C  0.44898466  0.24574884  0.21680065    -0.02800
C711        C  0.39021083  0.23645818  0.24317043     0.36400
C712        C  0.50011563  0.23923083  0.21770612     0.40000
C713        C  0.43736906  0.23939331  0.26117412     0.39200
C714        C  0.45171105  0.24863730  0.20158496     0.36100
C715        C  0.40030160  0.29697642  0.21060189     0.36800
C716        C  0.34197484  0.19154139  0.19713533     0.40000
N717        N  0.43069458  0.23871598  0.27291404    -0.38000
N718        N  0.36744101  0.23396351  0.24786962    -0.39600
N719        N  0.01692481  0.23694670  0.20869246    -0.37400
N720        N  0.45408250  0.25107674  0.18950405    -0.39800
N721        N  0.39887778  0.16962325  0.22010973    -0.39500
N722        N  0.33119069  0.16982155  0.19411156    -0.37200
N723        N  0.34936670  0.31744947  0.18456569    -0.38200
N724        N  0.41145135  0.31880319  0.21305207    -0.39900
C725        C  0.26835638  0.10910121  0.05595624    -0.04800
C726        C  0.24057888  0.11495987  0.06104717     0.09300
C727        C  0.21629633  0.10415391  0.05380513    -0.02200
C728        C  0.21982277  0.08689706  0.04172419    -0.00500
C729        C  0.24763356  0.07953837  0.03715413    -0.04100
C730        C  0.27190317  0.09074532  0.04426091     0.02900
C731        C  0.23703184  0.13223993  0.07419646     0.09800
C732        C  0.18773205  0.11013608  0.05902844     0.35700
C733        C  0.30043752  0.08225889  0.03995807     0.39100
C734        C  0.22802767  0.16095360  0.07337434    -0.04400
C735        C  0.22610582  0.17784112  0.08567147     0.02700
C736        C  0.23487337  0.16660465  0.09895450    -0.04000
C737        C  0.24244474  0.13705749  0.09974865    -0.00300
C738        C  0.24319481  0.11999514  0.08741508    -0.02800
C739        C  0.22133789  0.17334191  0.05972927     0.36400
C740        C  0.25025125  0.12394962  0.11305236     0.40000
C741        C  0.21471694  0.20669005  0.08435554     0.39200
C742        C  0.25072200  0.08976840  0.08824025     0.36100
C743        C  0.29323725  0.12184139  0.06285332     0.36800
C744        C  0.19487911  0.07508447  0.03449987     0.40000
N745        N  0.20565814  0.22959301  0.08288556    -0.38000
N746        N  0.21598517  0.18314889  0.04885137    -0.39600
N747        N  0.25634860  0.11312499  0.12359646    -0.37400
N748        N  0.25669482  0.06566668  0.08885219    -0.39800
N749        N  0.16495426  0.11497172  0.06318462    -0.39500
N750        N  0.17505550  0.06539512  0.02878788    -0.37200
N751        N  0.32321447  0.07533171  0.03661239    -0.38200
N752        N  0.31301017  0.13217057  0.06834148    -0.39900
C753        C  0.26373275  0.35640319  0.07613486    -0.04800
C754        C  0.26069220  0.38618304  0.07825292     0.09300
C755        C  0.25699692  0.39708196  0.09200353    -0.02200
C756        C  0.25571150  0.37814746  0.10365270    -0.00500
C757        C  0.25891424  0.34789873  0.10167684    -0.04100
C758        C  0.26394661  0.33749020  0.08769176     0.02900
C759        C  0.26185089  0.40582609  0.06580287     0.09800
C760        C  0.25424269  0.42792879  0.09410086     0.35700
C761        C  0.27005967  0.30740521  0.08481934     0.39100
C762        C  0.23649842  0.41834658  0.06057201    -0.04400
C763        C  0.23728057  0.43458782  0.04807408     0.02700
C764        C  0.26326942  0.43795900  0.04065327    -0.04000
C765        C  0.28865277  0.42571676  0.04590417    -0.00300
C766        C  0.28802570  0.40997515  0.05854655    -0.02800
C767        C  0.20961436  0.41442846  0.06801368     0.36400
C768        C  0.31547852  0.42989700  0.03841843     0.40000
C769        C  0.21144583  0.44808869  0.04283072     0.39200
C770        C  0.31432841  0.39804872  0.06412708     0.36100
C771        C  0.26632599  0.34513826  0.06186573     0.36800
C772        C  0.25067987  0.39029428  0.11752341     0.40000
N773        N  0.19099034  0.45895743  0.03854636    -0.38000
N774        N  0.18819578  0.41150654  0.07400930    -0.39600
N775        N  0.33686874  0.43333643  0.03245864    -0.37400
N776        N  0.33531591  0.38851534  0.06855967    -0.39800
N777        N  0.25188617  0.45252277  0.09568882    -0.39500
N778        N  0.24676408  0.40043979  0.12850833    -0.37200
N779        N  0.27488068  0.28355508  0.08223409    -0.38200
N780        N  0.26835464  0.33633585  0.05048359    -0.39900
C781        C  0.28070720  0.08771612  0.94046497    -0.04800
C782        C  0.26019044  0.10943263  0.93838559     0.09300
C783        C  0.23933549  0.11461711  0.94885123    -0.02200
C784        C  0.23830896  0.09749857  0.96110089    -0.00500
C785        C  0.25867036  0.07551006  0.96318195    -0.04100
C786        C  0.28010676  0.07097956  0.95283985     0.02900
C787        C  0.26012538  0.12669608  0.92508026     0.09800
C788        C  0.21849151  0.13726758  0.94680715     0.35700
C789        C  0.30087105  0.04818546  0.95463268     0.39100
C790        C  0.23765113  0.12311988  0.91517669    -0.04400
C791        C  0.23584314  0.14155284  0.90343656     0.02700
C792        C  0.25742566  0.16248114  0.90110550    -0.04000
C793        C  0.28092771  0.16468538  0.91045738    -0.00300
C794        C  0.28186251  0.14744295  0.92262126    -0.02800
C795        C  0.21613256  0.10075416  0.91722319     0.36400
C796        C  0.30451450  0.18427961  0.90740910     0.40000
C797        C  0.21101650  0.14003847  0.89421481     0.39200
C798        C  0.30484340  0.15155742  0.93277957     0.36100
C799        C  0.30201194  0.08213338  0.92967547     0.36800
C800        C  0.21546641  0.10175344  0.97122426     0.40000
N801        N  0.19106301  0.13902993  0.88695271    -0.38000
N802        N  0.19899269  0.08290361  0.91889529    -0.39600
N803        N  0.32365006  0.19946815  0.90493630    -0.37400
N804        N  0.32319935  0.15482960  0.94086874    -0.39800
N805        N  0.20184675  0.15521370  0.94498557    -0.39500
N806        N  0.19722884  0.10533975  0.97928243    -0.37200
N807        N  0.31719897  0.02976210  0.95592691    -0.38200
N808        N  0.31905733  0.07789357  0.92107666    -0.39900
C809        C  0.26148239  0.38031813  0.91811682    -0.04800
C810        C  0.24114850  0.37435556  0.92876479     0.09300
C811        C  0.21936810  0.35365560  0.92633587    -0.02200
C812        C  0.21775034  0.33922655  0.91327379    -0.00500
C813        C  0.23906248  0.34392082  0.90291937    -0.04100
C814        C  0.26079050  0.36475493  0.90532041     0.02900
C815        C  0.24243612  0.39048364  0.94242421     0.09800
C816        C  0.19927239  0.34643800  0.93746577     0.35700
C817        C  0.28321154  0.36923808  0.89495758     0.39100
C818        C  0.22323996  0.41320030  0.94494526    -0.04400
C819        C  0.22586272  0.42999060  0.95727539     0.02700
C820        C  0.24881104  0.42536459  0.96674900    -0.04000
C821        C  0.26745768  0.40198113  0.96445600    -0.00300
C822        C  0.26395015  0.38428900  0.95242714    -0.02800
C823        C  0.20209141  0.42059177  0.93435645     0.36400
C824        C  0.29118017  0.39708386  0.97401392     0.40000
C825        C  0.20571173  0.45301515  0.95992325     0.39200
C826        C  0.28333390  0.36055501  0.94991093     0.36100
C827        C  0.28349281  0.40208915  0.92052161     0.36800
C828        C  0.19369943  0.32003930  0.91034904     0.40000
N829        N  0.18975194  0.47145421  0.96205972    -0.38000
N830        N  0.18549422  0.42669200  0.92581827    -0.39600
N831        N  0.31013376  0.39311738  0.98162957    -0.37400
N832        N  0.29879582  0.34170038  0.94775025    -0.39800
N833        N  0.18341139  0.34038922  0.94637262    -0.39500
N834        N  0.17420133  0.30519038  0.90797774    -0.37200
N835        N  0.30121860  0.37280057  0.88674707    -0.38200
N836        N  0.30100085  0.41943572  0.92258794    -0.39900
C837        C  0.47983769  0.14322010  0.70428210    -0.04800
C838        C  0.50279084  0.14915520  0.71366170     0.09300
C839        C  0.02197511  0.13453713  0.71144120    -0.02200
C840        C  0.02200279  0.11064668  0.70214543    -0.00500
C841        C  0.50427400  0.10021161  0.69531200    -0.04100
C842        C  0.48024258  0.11856663  0.69548059     0.02900
C843        C  0.50161560  0.17525319  0.72333496     0.09800
C844        C  0.04778428  0.14164066  0.71930195     0.35700
C845        C  0.45596290  0.11229374  0.68634176     0.39100
C846        C  0.48115284  0.17670770  0.73416280    -0.04400
C847        C  0.47731036  0.20239718  0.74211746     0.02700
C848        C  0.49793957  0.22586477  0.74153753    -0.04000
C849        C  0.01549182  0.22507317  0.72986693    -0.00300
C850        C  0.01450131  0.20177751  0.72013321    -0.02800
C851        C  0.46322547  0.15152575  0.73687617     0.36400
C852        C  0.03830542  0.24603537  0.72772029     0.40000
C853        C  0.44986548  0.20440350  0.74911698     0.39200
C854        C  0.03203295  0.20257484  0.70748388     0.36100
C855        C  0.45605725  0.16304678  0.70338150     0.36800
C856        C  0.04875915  0.09644137  0.69885821     0.40000
N857        N  0.42721179  0.20485619  0.75407618    -0.38000
N858        N  0.44904197  0.13140513  0.73897441    -0.39600
N859        N  0.05715744  0.26162414  0.72529707    -0.37400
N860        N  0.04602893  0.20315427  0.69742282    -0.39800
N861        N  0.06865586  0.14725975  0.72537058    -0.39500
N862        N  0.07023592  0.08566268  0.69594265    -0.37200
N863        N  0.43668047  0.10717506  0.67902607    -0.38200
N864        N  0.43716883  0.17896359  0.70267484    -0.39900
C865        C  0.01900981  0.36311977  0.70528957    -0.04800
C866        C  0.49648475  0.35756109  0.71458261     0.09300
C867        C  0.47290291  0.37654889  0.71461879    -0.02200
C868        C  0.47267896  0.40081543  0.70561714    -0.00500
C869        C  0.49641716  0.40687860  0.69686044    -0.04100
C870        C  0.01927695  0.38712543  0.69613619     0.02900
C871        C  0.49699811  0.33143507  0.72400291     0.09800
C872        C  0.44826550  0.37052072  0.72346310     0.35700
C873        C  0.04276758  0.39078496  0.68627753     0.39100
C874        C  0.51700889  0.32985695  0.73501241    -0.04400
C875        C  0.52075751  0.30394846  0.74257944     0.02700
C876        C  0.49977336  0.28079826  0.74176820    -0.04000
C877        C  0.47907926  0.28339554  0.73047590    -0.00300
C878        C  0.47914158  0.30750836  0.72131732    -0.02800
C879        C  0.53468727  0.35502019  0.73828752     0.36400
C880        C  0.95390019  0.26417710  0.72899540     0.40000
C881        C  0.54880761  0.30120855  0.74895145     0.39200
C882        C  0.46035419  0.30797614  0.70909677     0.36100
C883        C  0.04222986  0.34255244  0.70468307     0.36800
C884        C  0.44710892  0.41818752  0.70456668     0.40000
N885        N  0.57199882  0.30022254  0.75326883    -0.38000
N886        N  0.54868346  0.37505225  0.74092591    -0.39600
N887        N  0.93481459  0.24872998  0.72671229    -0.37400
N888        N  0.44552829  0.30851784  0.69930978    -0.39800
N889        N  0.42826848  0.36573628  0.73030549    -0.39500
N890        N  0.42642442  0.43160503  0.70359616    -0.37200
N891        N  0.06128929  0.39335254  0.67826696    -0.38200
N892        N  0.06081411  0.32623758  0.70417876    -0.39900
C893        C  0.11069682  0.22958470  0.79614933    -0.04800
C894        C  0.10305596  0.25502857  0.78891264     0.09300
C895        C  0.12027267  0.28010800  0.79078879    -0.02200
C896        C  0.14390944  0.27991328  0.80018610    -0.00500
C897        C  0.15259127  0.25395205  0.80654146    -0.04100
C898        C  0.13599704  0.22872758  0.80432167     0.02900
C899        C  0.07659873  0.25514687  0.77962880     0.09800
C900        C  0.11336080  0.30637677  0.78335301     0.35700
C901        C  0.14467215  0.20186472  0.81074203     0.39100
C902        C  0.05274410  0.27215878  0.78300753    -0.04400
C903        C  0.02825200  0.27251797  0.77408815     0.02700
C904        C  0.02511081  0.25271609  0.76236137    -0.04000
C905        C  0.04803091  0.23216488  0.76094400    -0.00300
C906        C  0.07445128  0.23628791  0.76804786    -0.02800
C907        C  0.05361337  0.28996437  0.79563296     0.36400
C908        C  0.04439105  0.20393441  0.75459893     0.40000
C909        C  0.00740046  0.29472042  0.77700573     0.39200
C910        C  0.09950770  0.22013204  0.76367454     0.36100
C911        C  0.09181552  0.20454565  0.79571211     0.36800
C912        C  0.15749549  0.30685702  0.80435878     0.40000
N913        N  0.49266462  0.31187381  0.78057960    -0.38000
N914        N  0.05442644  0.30430137  0.80563484    -0.39600
N915        N  0.04237870  0.18074646  0.75015544    -0.37400
N916        N  0.11953296  0.20738395  0.76022427    -0.39800
N917        N  0.10783020  0.32749437  0.77754746    -0.33500
N918        N  0.16777036  0.32844970  0.80797274    -0.37200
N919        N  0.15165318  0.18040314  0.81580086    -0.38200
N920        N  0.07662743  0.18468865  0.79538494    -0.39900
C921        C  0.42286390  0.27356165  0.76895020    -0.04800
C922        C  0.42061349  0.25471309  0.78042500     0.09300
C923        C  0.44398683  0.23673856  0.78338991    -0.02200
C924        C  0.46786336  0.23525768  0.77408239    -0.00500
C925        C  0.47106418  0.25485569  0.76235701    -0.04100
C926        C  0.44899861  0.27654640  0.76152367     0.02900
C927        C  0.39466861  0.25573291  0.79003389     0.09800
C928        C  0.44358689  0.21983964  0.79624425     0.35700
C929        C  0.45385630  0.30518170  0.75594747     0.39100
C930        C  0.37598122  0.23166091  0.79135503    -0.04400
C931        C  0.35253272  0.23242531  0.80081139     0.02700
C932        C  0.34580494  0.25805127  0.80810007    -0.04000
C933        C  0.36432320  0.28219756  0.80675750    -0.00300
C934        C  0.38885406  0.28087769  0.79802459    -0.02800
C935        C  0.38076623  0.20592872  0.78302755     0.36400
C936        C  0.35851547  0.30833074  0.81465048     0.40000
C937        C  0.33724419  0.20599648  0.80416230     0.39200
C938        C  0.40834012  0.30541784  0.79741100     0.36100
C939        C  0.39868535  0.29174016  0.76538644     0.36800
C940        C  0.48824125  0.21255282  0.77679220     0.40000
N941        N  0.32568677  0.18470799  0.80713815    -0.38000
N942        N  0.38419559  0.18520352  0.77645557    -0.39600
N943        N  0.35404064  0.32915458  0.82098407    -0.37400
N944        N  0.42374105  0.32507401  0.79680374    -0.39800
N945        N  0.44330121  0.20660186  0.80655780    -0.39500
N946        N  0.50343044  0.19388629  0.77964425    -0.37200
N947        N  0.45692451  0.32871712  0.75222360    -0.38200
N948        N  0.37951642  0.30635164  0.76263859    -0.39900
C949        C  0.32304702  0.03239953  0.73311029    -0.04800
C950        C  0.32833245  0.01084145  0.72312841     0.09300
C951        C  0.30340349  0.48622294  0.72021819    -0.02200
C952        C  0.27853335  0.48560360  0.72888980    -0.00500
C953        C  0.27647101  0.00912854  0.74024135    -0.04100
C954        C  0.29689288  0.03290907  0.74076219     0.02900
C955        C  0.35446508  0.01293156  0.71373791     0.09800
C956        C  0.30812566  0.46374104  0.70979726     0.35700
C957        C  0.29003180  0.06089069  0.74647187     0.39100
C958        C  0.37802377  0.50150011  0.71743872    -0.04400
C959        C  0.40233029  0.50316942  0.70848214     0.02700
C960        C  0.40312586  0.01665279  0.69543836    -0.04000
C961        C  0.37683264  0.03035444  0.69194939    -0.00300
C962        C  0.35281641  0.02830750  0.70098729    -0.02800
C963        C  0.38133469  0.49173148  0.73183794     0.36400
C964        C  0.37436105  0.04768993  0.67931042     0.40000
C965        C  0.43028824  0.49663199  0.71429172     0.39200
C966        C  0.32607421  0.04202828  0.69714461     0.36100
C967        C  0.34377438  0.05591591  0.73450179     0.36800
C968        C  0.25943118  0.46111045  0.72690053     0.40000
N969        N  0.45257050  0.49168023  0.71904576    -0.38000
N970        N  0.38434442  0.48393378  0.74331076    -0.39600
N971        N  0.37193816  0.06169801  0.66932114    -0.37400
N972        N  0.30470922  0.05291346  0.69413758    -0.39800
N973        N  0.31211151  0.44591454  0.70148829    -0.39500
N974        N  0.24560106  0.44080896  0.72458096    -0.37200
N975        N  0.28533920  0.08406555  0.75024298    -0.38200
N976        N  0.36009054  0.07477071  0.73545422    -0.39900
C977        C  0.17162716  0.48056964  0.73303285    -0.04800
C978        C  0.16827050  0.00442319  0.72439604     0.09300
C979        C  0.18995413  0.02489601  0.72181601    -0.02200
C980        C  0.21624232  0.02437357  0.72941666    -0.00500
C981        C  0.22152409  0.00305197  0.74017297    -0.04100
C982        C  0.19799266  0.47842019  0.74040393     0.02900
C983        C  0.14186251  0.00331688  0.71525592     0.09800
C984        C  0.18462656  0.04732111  0.71151158     0.35700
C985        C  0.20298864  0.45045948  0.74654060     0.39100
C986        C  0.11568705  0.01578256  0.71950038    -0.04400
C987        C  0.09142892  0.01482863  0.71043693     0.02700
C988        C  0.09300025  0.00063256  0.69718490    -0.04000
C989        C  0.11330120  0.47865674  0.69474515    -0.00300
C990        C  0.13793966  0.47973647  0.70335079    -0.02800
C991        C  0.11352677  0.02950827  0.73319246     0.36400
C992        C  0.11053030  0.45578863  0.68436510     0.40000
C993        C  0.06504538  0.02834576  0.71491518     0.39200
C994        C  0.16057662  0.45886496  0.70130793     0.36100
C995        C  0.14877493  0.45953402  0.73536279     0.36800
C996        C  0.23658723  0.04712384  0.72613657     0.40000
N997        N  0.04405619  0.03900558  0.71868716    -0.38000
N998        N  0.11102506  0.04038167  0.74411288    -0.39600
N999        N  0.10886469  0.43743701  0.67611740    -0.37400
N1000       N  0.17869945  0.44230125  0.69975911    -0.39800
N1001       N  0.18030354  0.06521430  0.70333939    -0.39500
N1002       N  0.25142892  0.06582088  0.72255337    -0.37200
N1003       N  0.20570991  0.42734025  0.75081013    -0.38200
N1004       N  0.13060309  0.44275459  0.73706626    -0.39900
C1005       C  0.22600354  0.08062196  0.76797018    -0.04800
C1006       C  0.24728819  0.08489300  0.77816968     0.09300
C1007       C  0.26706613  0.06288188  0.78065235    -0.02200
C1008       C  0.26728634  0.03767874  0.77208454    -0.00500
C1009       C  0.24625333  0.03295434  0.76105981    -0.04100
C1010       C  0.22368665  0.05419320  0.76055606     0.02900
C1011       C  0.24618261  0.11102327  0.78757630     0.09800
C1012       C  0.28789274  0.06669665  0.79192645     0.35700
C1013       C  0.19549806  0.04878826  0.75472938     0.39100
C1014       C  0.22892429  0.11025619  0.79975261    -0.04400
C1015       C  0.22745570  0.13448933  0.80873447     0.02700
C1016       C  0.24368313  0.15980311  0.80578019    -0.04000
C1017       C  0.25854127  0.16147617  0.79280560    -0.00300
C1018       C  0.26016541  0.13705498  0.78387670    -0.02800
C1019       C  0.21211609  0.08454144  0.80284147     0.36400
C1020       C  0.27180982  0.18833998  0.78840211     0.40000
C1021       C  0.20760802  0.13378058  0.82048663     0.39200
C1022       C  0.27602044  0.13912646  0.77080565     0.36100
C1023       C  0.20527959  0.10337056  0.76559122     0.36800
C1024       C  0.29068538  0.01797207  0.77449803     0.40000
N1025       N  0.19119946  0.13279516  0.82961288    -0.38000
N1026       N  0.19863846  0.06403961  0.80515739    -0.39600
N1027       N  0.28208841  0.20979748  0.78469393    -0.37400
N1028       N  0.28880823  0.14193533  0.76045280    -0.39800
N1029       N  0.30441254  0.06975789  0.80093734    -0.39500
N1030       N  0.30997404  0.00343868  0.77713483    -0.37200
N1031       N  0.17213584  0.04590492  0.75083725    -0.38200
N1032       N  0.18884516  0.12145498  0.76365081    -0.39900
C1033       C  0.27133748  0.42994543  0.76793396    -0.04800
C1034       C  0.24981635  0.42498858  0.77791425     0.09300
C1035       C  0.22914964  0.44627204  0.78012135    -0.02200
C1036       C  0.22876073  0.47168610  0.77177520    -0.00500
C1037       C  0.24960069  0.47679084  0.76072145    -0.04100
C1038       C  0.27280883  0.45621429  0.76035727     0.02900
C1039       C  0.25114767  0.39891022  0.78736719     0.09800
C1040       C  0.20727876  0.44128734  0.79076614     0.35700
C1041       C  0.30070178  0.46233804  0.75434874     0.39100
C1042       C  0.26762310  0.40015420  0.79982895    -0.04400
C1043       C  0.26882162  0.37613742  0.80893106     0.02700
C1044       C  0.25223774  0.35096066  0.80612988    -0.04000
C1045       C  0.23817275  0.34874597  0.79288594    -0.00300
C1046       C  0.23773445  0.37258758  0.78356681    -0.02800
C1047       C  0.28425409  0.42598957  0.80298522     0.36400
C1048       C  0.22487095  0.32179075  0.78854089     0.40000
C1049       C  0.28965773  0.37639171  0.82027234     0.39200
C1050       C  0.22439503  0.36961260  0.76983217     0.36100
C1051       C  0.29299370  0.40797575  0.76589171     0.36800
C1052       C  0.20540276  0.49120133  0.77461300     0.40000
N1053       N  0.30724035  0.37696753  0.82888699    -0.38000
N1054       N  0.29759518  0.44660933  0.80533337    -0.39600
N1055       N  0.21467656  0.30019121  0.78488252    -0.37400
N1056       N  0.21409231  0.36660710  0.75881447    -0.39800
N1057       N  0.18974475  0.43728022  0.79917371    -0.39500
N1058       N  0.18611388  0.50521839  0.77787887    -0.37200
N1059       N  0.32372251  0.46616983  0.75017698    -0.38200
N1060       N  0.31008078  0.39036272  0.76427475    -0.39900
C1061       C  0.11820386  0.23624306  0.08834345    -0.04800
C1062       C  0.12127484  0.25604671  0.07718343     0.09300
C1063       C  0.14125236  0.27896738  0.07833902    -0.02200
C1064       C  0.15820955  0.28195098  0.09056548    -0.00500
C1065       C  0.15607328  0.26137102  0.10147759    -0.04100
C1066       C  0.13625375  0.23829221  0.10022531     0.02900
C1067       C  0.10383592  0.25248317  0.06407017     0.09800
C1068       C  0.14477239  0.29910966  0.06678311     0.35700
C1069       C  0.13617266  0.21522749  0.11050241     0.39100
C1070       C  0.08191112  0.27224169  0.06100175    -0.04400
C1071       C  0.06595243  0.26934987  0.04849111     0.02700
C1072       C  0.07049292  0.24557836  0.03945798    -0.04000
C1073       C  0.09211180  0.22556868  0.04258511    -0.00300
C1074       C  0.10923156  0.22939085  0.05470184    -0.02800
C1075       C  0.07504265  0.29487863  0.07099378     0.36400
C1076       C  0.09599250  0.20058312  0.03358335     0.40000
C1077       C  0.04440155  0.29053693  0.04498846     0.39200
C1078       C  0.13197687  0.20920773  0.05769359     0.36100
C1079       C  0.09668617  0.21351025  0.08749090     0.36800
C1080       C  0.17810945  0.30604105  0.09179341     0.40000
N1081       N  0.02724327  0.30738791  0.04211737    -0.38000
N1082       N  0.06946073  0.31280347  0.07901455    -0.39600
N1083       N  0.09891114  0.18069359  0.02635482    -0.37400
N1084       N  0.14996269  0.19295460  0.06012341    -0.39800
N1085       N  0.14742238  0.31513101  0.05754648    -0.39500
N1086       N  0.19381784  0.32541135  0.09265460    -0.37200
N1087       N  0.13646088  0.19650269  0.11851731    -0.38200
N1088       N  0.07947959  0.19542925  0.08678584    -0.39900
C1089       C  0.35272683  0.23472655  0.07707587    -0.04800
C1090       C  0.37269961  0.25773559  0.07637198     0.09300
C1091       C  0.37488188  0.27762291  0.08762989    -0.02200
C1092       C  0.35686457  0.27476503  0.09944013    -0.00500
C1093       C  0.33676062  0.25187800  0.10009577    -0.04100
C1094       C  0.33472720  0.23185151  0.08888881     0.02900
C1095       C  0.39126341  0.26102961  0.06367248     0.09800
C1096       C  0.39529716  0.30135618  0.08693070     0.35700
C1097       C  0.31423537  0.20818042  0.08948262     0.39100
C1098       C  0.38649763  0.28371237  0.05407304    -0.04400
C1099       C  0.40406667  0.28668745  0.04209278     0.02700
C1100       C  0.42579213  0.26644617  0.03942736    -0.04000
C1101       C  0.42980660  0.24317164  0.04875408    -0.00300
C1102       C  0.41324407  0.24102189  0.06107602    -0.02800
C1103       C  0.36386737  0.30429435  0.05667375     0.36400
C1104       C  0.45110562  0.22145444  0.04565422     0.40000
C1105       C  0.40024811  0.31088091  0.03266665     0.39200
C1106       C  0.41933025  0.21868546  0.07129158     0.36100
C1107       C  0.35058020  0.21411715  0.06556169     0.36800
C1108       C  0.35790716  0.29629609  0.11057361     0.40000
N1109       N  0.39723581  0.33008724  0.02508252    -0.38000
N1110       N  0.34599524  0.32084793  0.05884597    -0.39600
N1111       N  0.46800057  0.20408870  0.04313160    -0.37400
N1112       N  0.42425297  0.20095420  0.07946577    -0.39800
N1113       N  0.41134961  0.32047050  0.08628427    -0.39500
N1114       N  0.35849125  0.31347457  0.11944416    -0.37200
N1115       N  0.29801980  0.18917814  0.08978676    -0.38200
N1116       N  0.34916479  0.19759370  0.05641533    -0.39900
C1117       C  0.15136350  0.23197268  0.92815623    -0.04800
C1118       C  0.12184299  0.23715080  0.92699104     0.09300
C1119       C  0.10954553  0.24136661  0.91357107    -0.02200
C1120       C  0.12697620  0.24164071  0.90135213    -0.00500
C1121       C  0.15713058  0.23758823  0.90247959    -0.04100
C1122       C  0.16870362  0.23107401  0.91604239     0.02900
C1123       C  0.10386587  0.23783893  0.94005414     0.09800
C1124       C  0.07887440  0.24590264  0.91240721     0.35700
C1125       C  0.19836514  0.22257337  0.91786890     0.39100
C1126       C  0.09461847  0.26441620  0.94562967    -0.04400
C1127       C  0.07836304  0.26508945  0.95814956     0.02700
C1128       C  0.07129931  0.23921253  0.96515130    -0.04000
C1129       C  0.08141489  0.21274044  0.95985982    -0.00300
C1130       C  0.09758964  0.21203315  0.94733146    -0.02800
C1131       C  0.10184670  0.29102999  0.93844151     0.36400
C1132       C  0.07427413  0.18614016  0.96707946     0.40000
C1133       C  0.06850022  0.29233836  0.96376168     0.39200
C1134       C  0.10768144  0.18472608  0.94185886     0.36100
C1135       C  0.16408787  0.22810846  0.94201315     0.36800
C1136       C  0.11339115  0.24616002  0.88778783     0.40000
N1137       N  0.06070035  0.31406150  0.96830111    -0.38000
N1138       N  0.10759378  0.31218063  0.93262881    -0.39600
N1139       N  0.06849668  0.16491381  0.97281734    -0.37400
N1140       N  0.11596914  0.16300743  0.93753234    -0.39800
N1141       N  0.05444121  0.24966690  0.91151099    -0.39500
N1142       N  0.10200287  0.24947650  0.87707283    -0.37200
N1143       N  0.22187201  0.21575713  0.91971124    -0.38200
N1144       N  0.17412729  0.22507630  0.95306573    -0.39900
C1145       C  0.34214878  0.27172074  0.92996033    -0.04800
C1146       C  0.37203333  0.27120295  0.92823964     0.09300
C1147       C  0.38378833  0.26883164  0.91462940    -0.02200
C1148       C  0.36567469  0.26599955  0.90273296    -0.00500
C1149       C  0.33534260  0.26783784  0.90420601    -0.04100
C1150       C  0.32389405  0.27132081  0.91810526     0.02900
C1151       C  0.39103740  0.27246969  0.94093757     0.09800
C1152       C  0.41472806  0.26902582  0.91293512     0.35700
C1153       C  0.29338185  0.27472425  0.92061153     0.39100
C1154       C  0.40420639  0.24717297  0.94588481    -0.04400
C1155       C  0.42157042  0.24819948  0.95802527     0.02700
C1156       C  0.42569476  0.27445657  0.96530459    -0.04000
C1157       C  0.41218420  0.29964906  0.96054238    -0.00300
C1158       C  0.39490705  0.29868971  0.94835405    -0.02800
C1159       C  0.39989132  0.22010590  0.93845994     0.36400
C1160       C  0.41687490  0.32664921  0.96798010     0.40000
C1161       C  0.43562286  0.22236291  0.96296435     0.39200
C1162       C  0.38135381  0.32471188  0.94333924     0.36100
C1163       C  0.33020027  0.27196232  0.94410861     0.36800
C1164       C  0.37871092  0.25970164  0.88921471     0.40000
N1165       N  0.44689451  0.20185073  0.96697037    -0.38000
N1166       N  0.39653847  0.19853501  0.93250238    -0.39600
N1167       N  0.42083489  0.34812490  0.97393671    -0.37400
N1168       N  0.37047776  0.34546886  0.93936903    -0.39800
N1169       N  0.43940716  0.26927937  0.91165997    -0.39500
N1170       N  0.38945802  0.25440993  0.87853800    -0.37200
N1171       N  0.26915340  0.27737231  0.92285587    -0.38200
N1172       N  0.32094079  0.27190483  0.95542165    -0.39900
C1173       C  0.37936221  0.51522978  0.28461266    -0.04800
C1174       C  0.35571509  0.99996716  0.28527513     0.09300
C1175       C  0.35534869  0.98011904  0.29653006    -0.02200
C1176       C  0.37893654  0.97832244  0.30584890    -0.00500
C1177       C  0.40297587  0.99699824  0.30437673    -0.04100
C1178       C  0.40385689  0.51338640  0.29341795     0.02900
C1179       C  0.33034432  0.00185831  0.27539635     0.09800
C1180       C  0.33080883  0.96105207  0.29840749     0.35700
C1181       C  0.42861302  0.53144017  0.29047535     0.39100
C1182       C  0.32328971  0.47767055  0.26823536    -0.04400
C1183       C  0.29944723  0.47864466  0.25900057     0.02700
C1184       C  0.27854646  0.00249434  0.25838530    -0.04000
C1185       C  0.28720441  0.02671921  0.26707996    -0.00300
C1186       C  0.31247082  0.02603029  0.27547292    -0.02800
C1187       C  0.34325063  0.45376459  0.26749691     0.36400
C1188       C  0.26944536  0.05195798  0.26878354     0.40000
C1189       C  0.30159386  0.45930627  0.24704097     0.39200
C1190       C  0.31925006  0.04973724  0.28499755     0.36100
C1191       C  0.37983256  0.53397428  0.27241061     0.36800
C1192       C  0.37915710  0.95579083  0.31640528     0.40000
N1193       N  0.30528325  0.44410650  0.23753821    -0.38000
N1194       N  0.35901496  0.43468741  0.26701556    -0.39600
N1195       N  0.25675843  0.07282566  0.27090855    -0.37400
N1196       N  0.32464697  0.06859863  0.29258911    -0.39800
N1197       N  0.31146333  0.94553418  0.29982703    -0.39500
N1198       N  0.37930894  0.93738266  0.32459515    -0.37200
N1199       N  0.44826034  0.54575464  0.28775565    -0.38200
N1200       N  0.38025781  0.54876778  0.26261845    -0.39900
C1201       C  0.19525192  0.49504256  0.28567618    -0.04800
C1202       C  0.16922831  0.00012748  0.27737522     0.09300
C1203       C  0.16733814  0.99739655  0.26270216    -0.02200
C1204       C  0.19238006  0.99781771  0.25425782    -0.00500
C1205       C  0.22079265  0.00080661  0.26038792    -0.04100
C1206       C  0.22073030  0.49520785  0.27750366     0.02900
C1207       C  0.14265183  0.00153581  0.28626688     0.09800
C1208       C  0.13912305  0.99491180  0.25623057     0.35700
C1209       C  0.24654890  0.49005438  0.28555579     0.39100
C1210       C  0.13471173  0.02775341  0.29278360    -0.04400
C1211       C  0.11069529  0.02866233  0.30176411     0.02700
C1212       C  0.09496254  0.00327058  0.30462987    -0.04000
C1213       C  0.10006778  0.47107897  0.29895717    -0.00300
C1214       C  0.12434713  0.47055240  0.29002312    -0.02800
C1215       C  0.15187318  0.05364355  0.29087441     0.36400
C1216       C  0.08475446  0.44453875  0.30206859     0.40000
C1217       C  0.10271239  0.05559538  0.30847948     0.39200
C1218       C  0.13256397  0.44387441  0.28319714     0.36100
C1219       C  0.19678973  0.49426494  0.30101086     0.36800
C1220       C  0.18761622  0.99770669  0.23912893     0.40000
N1221       N  0.09632187  0.07702583  0.31384128    -0.38000
N1222       N  0.16529371  0.07462558  0.28985007    -0.39600
N1223       N  0.07295621  0.42319547  0.30471763    -0.37400
N1224       N  0.13917067  0.42266451  0.27769468    -0.39800
N1225       N  0.11662106  0.99266875  0.25115828    -0.39500
N1226       N  0.18194613  0.99768475  0.22724722    -0.37200
N1227       N  0.26589768  0.48504376  0.29276391    -0.38200
N1228       N  0.19804332  0.49371561  0.31319265    -0.39900
C1229       C  0.22905636  0.10686628  0.20182210    -0.04800
C1230       C  0.24716696  0.10814262  0.21370372     0.09300
C1231       C  0.26163430  0.13410152  0.21703167    -0.02200
C1232       C  0.25940915  0.15820209  0.20804706    -0.00500
C1233       C  0.24259327  0.15643709  0.19555726    -0.04100
C1234       C  0.22636133  0.13093949  0.19295027     0.02900
C1235       C  0.24855168  0.08297115  0.22352581     0.09800
C1236       C  0.27823963  0.13611983  0.22995434     0.35700
C1237       C  0.20532661  0.12971034  0.18167027     0.39100
C1238       C  0.27198343  0.06437241  0.22341628    -0.04400
C1239       C  0.27250488  0.03980537  0.23228895     0.02700
C1240       C  0.24857077  0.03245410  0.24135215    -0.04000
C1241       C  0.22697834  0.05473753  0.24249528    -0.00300
C1242       C  0.22645039  0.07843365  0.23317714    -0.02800
C1243       C  0.29497287  0.06970315  0.21339085     0.36400
C1244       C  0.20687282  0.05721873  0.25401676     0.40000
C1245       C  0.29749651  0.02172492  0.23086710     0.39200
C1246       C  0.20329826  0.09930785  0.23379939     0.36100
C1247       C  0.21237275  0.08095998  0.19891184     0.36800
C1248       C  0.27429066  0.18466737  0.21190213     0.40000
N1249       N  0.31834361  0.00898384  0.22894183    -0.38000
N1250       N  0.31314066  0.07381916  0.20532667    -0.39600
N1251       N  0.19050165  0.06110166  0.26294668    -0.37400
N1252       N  0.18502159  0.11597639  0.23424048    -0.39800
N1253       N  0.29129966  0.13764851  0.24031801    -0.39500
N1254       N  0.28596827  0.20576065  0.21519434    -0.37200
N1255       N  0.18811057  0.12817972  0.17289975    -0.38200
N1256       N  0.19863570  0.06065018  0.19648045    -0.39900
C1257       C  0.24875654  0.44625023  0.21905873    -0.04800
C1258       C  0.24529042  0.41935912  0.22552357     0.09300
C1259       C  0.24036871  0.41820948  0.24004275    -0.02200
C1260       C  0.24152961  0.44361437  0.24836311    -0.00500
C1261       C  0.24473618  0.47197130  0.24210434    -0.04100
C1262       C  0.24549062  0.47210491  0.22684688     0.02900
C1263       C  0.24551858  0.39230760  0.21678786     0.09800
C1264       C  0.23534062  0.39027367  0.24655211     0.35700
C1265       C  0.24011765  0.49712736  0.21827189     0.39100
C1266       C  0.26840855  0.37258827  0.21776419    -0.04400
C1267       C  0.26914659  0.34824021  0.20883114     0.02700
C1268       C  0.24804844  0.34446359  0.19833512    -0.04000
C1269       C  0.22433866  0.36312696  0.19789903    -0.00300
C1270       C  0.22283620  0.38666885  0.20724820    -0.02800
C1271       C  0.29159442  0.37745083  0.22770747     0.36400
C1272       C  0.20104257  0.35754491  0.18805651     0.40000
C1273       C  0.29155434  0.32711863  0.21049309     0.39200
C1274       C  0.19798842  0.40523112  0.20700116     0.36100
C1275       C  0.25610288  0.44719464  0.20415336     0.36800
C1276       C  0.24148541  0.43882493  0.26343847     0.40000
N1277       N  0.30910162  0.31003946  0.21219406    -0.38000
N1278       N  0.31031895  0.38066383  0.23559347    -0.39600
N1279       N  0.18244399  0.35286841  0.18026379    -0.37400
N1280       N  0.17814960  0.42000668  0.20679135    -0.39800
N1281       N  0.23159132  0.36799287  0.25169981    -0.39500
N1282       N  0.24136485  0.43213258  0.27517761    -0.37200
N1283       N  0.23535996  0.51574472  0.21056774    -0.38200
N1284       N  0.26225919  0.44772793  0.19234120    -0.39900
C1285       C  0.24826389  0.00269317  0.25015102    -0.01800
N1286       N  0.48944692  0.72995714  0.98109519    -0.36000
N1287       N  0.44786876  0.72463813  0.00349017    -0.56500
N1288       N  0.49580193  0.72704808  0.02335216    -0.35900
N1289       N  0.04098039  0.75644859  0.00055049    -0.56500
C1290       C  0.46517618  0.72341863  0.97387506     0.27600
C1291       C  0.01964835  0.76225243  0.97141256     0.27600
C1292       C  0.47406307  0.71919314  0.03194558     0.27600
C1293       C  0.01952237  0.75514719  0.03054190     0.27600
C1294       C  0.42997219  0.73188922  0.99287348     0.36300
C1295       C  0.43340622  0.72888657  0.01563319     0.36300
C1296       C  0.05775842  0.75270181  0.98906261     0.36300
C1297       C  0.05782662  0.75262120  0.01196788     0.36300
C1298       C  0.47215508  0.71392623  0.96045757    -0.21200
C1299       C  0.01081576  0.77164668  0.95826423    -0.21200
C1300       C  0.48504470  0.71022993  0.04479319    -0.21200
C1301       C  0.01079653  0.75927234  0.04440156    -0.21200
C1302       C  0.40376173  0.74031257  0.99828064    -0.22300
C1303       C  0.40584871  0.73813062  0.01273683    -0.22300
C1304       C  0.08556262  0.74676864  0.99321164    -0.22300
C1305       C  0.08570770  0.74719276  0.00773233    -0.22300
C1306       C  0.43702118  0.72974123  0.97840642    -0.17600
C1307       C  0.04838610  0.75586590  0.97493949    -0.17600
C1308       C  0.04860732  0.75483416  0.02615229    -0.17600
C1309       C  0.44468207  0.72374784  0.02923050    -0.17600
H1310       H  0.45749915  0.70791763  0.95206331     0.15300
H1311       H  0.02413149  0.77669701  0.94924922     0.15300
H1312       H  0.47316682  0.70353712  0.05403079     0.15300
H1313       H  0.02412036  0.76341225  0.05354875     0.15300
H1314       H  0.38509923  0.74715947  0.99243592     0.13600
H1315       H  0.38915131  0.74308818  0.02025324     0.13600
H1316       H  0.10389653  0.74295665  0.98650263     0.13600
H1317       H  0.10414201  0.74351764  0.01440754     0.13600
H1318       H  0.49042329  0.74136585  0.99052895     0.26800
H1319       H  0.49364575  0.73850626  0.01404447     0.26800
C1320       C  0.24888489  0.00572384  0.75053720    -0.01800
C1321       C  0.99542102  0.75465627  0.75164145    -0.01800
N1322       N  0.25276792  0.00266402  0.98006996    -0.36000
N1323       N  0.26407911  0.54908391  0.99956081    -0.56500
N1324       N  0.25333427  0.00413583  0.02291823    -0.35900
N1325       N  0.25063384  0.95882174  0.00218830    -0.56500
C1326       C  0.26780535  0.52201394  0.97111712     0.27600
C1327       C  0.24470292  0.97917451  0.97252680     0.27600
C1328       C  0.26928848  0.53293799  0.02903768     0.27600
C1329       C  0.24842502  0.98108063  0.03130677     0.27600
C1330       C  0.25950630  0.56340819  0.98744391     0.36300
C1331       C  0.25787480  0.56742429  0.01021259     0.36300
C1332       C  0.25312598  0.94151594  0.99079619     0.36300
C1333       C  0.25577463  0.94233294  0.01362798     0.36300
C1334       C  0.27595963  0.51058883  0.95819143    -0.21200
C1335       C  0.23507574  0.98773119  0.95932990    -0.21200
C1336       C  0.28069563  0.52684439  0.04216884    -0.21200
C1337       C  0.23956101  0.99029266  0.04449013    -0.21200
C1338       C  0.25120554  0.59142029  0.99038889    -0.22300
C1339       C  0.24988580  0.59386665  0.00487192    -0.22300
C1340       C  0.25937306  0.91370920  0.99501823    -0.22300
C1341       C  0.26133472  0.91429737  0.00949667    -0.22300
C1342       C  0.26378020  0.55168619  0.97383472    -0.17600
C1343       C  0.24790232  0.95013354  0.97674954    -0.17600
C1344       C  0.25349841  0.95198598  0.02774297    -0.17600
C1345       C  0.26094673  0.56054842  0.02462280    -0.17600
H1346       H  0.28194379  0.52221572  0.94876210     0.15300
H1347       H  0.22787025  0.97424982  0.95067856     0.15300
H1348       H  0.28653523  0.54202636  0.05039898     0.15300
H1349       H  0.23441309  0.97715035  0.05356044     0.15300
H1350       H  0.24644071  0.60824595  0.98289769     0.13600
H1351       H  0.24414890  0.61294570  0.01077592     0.13600
H1352       H  0.26204510  0.89492364  0.98837913     0.13600
H1353       H  0.26572744  0.89607382  0.01621747     0.13600
H1354       H  0.26425474  0.00251009  0.98945472     0.26800
H1355       H  0.26338640  0.00383730  0.01317467     0.26800
O1356       O  0.32375733  0.75527775  0.87897064    -0.74600
O1357       O  0.28541750  0.75456487  0.89384884    -0.53500
C1358       C  0.31244940  0.75450887  0.89144217     0.79100
O1359       O  0.24579077  0.83622536  0.82996372    -0.59200
O1360       O  0.24949505  0.80157107  0.81287676    -0.52300
C1361       C  0.24835029  0.82813941  0.81700405     0.71100
O1362       O  0.23536944  0.83266518  0.87776461    -0.73800
O1363       O  0.23910634  0.79558331  0.89316254    -0.54400
C1364       C  0.23553166  0.82230824  0.89040461     0.77100
O1365       O  0.32871161  0.75674519  0.83100928    -0.58900
O1366       O  0.29522768  0.75307814  0.81344385    -0.52100
C1367       C  0.32139174  0.75443249  0.81795430     0.73700
Zr1368     Zr  0.30628188  0.75912492  0.85424038     2.54700
O1369       O  0.33390166  0.80383445  0.85548172    -0.79500
O1370       O  0.35101968  0.73262623  0.85349356    -0.92900
Zr1371     Zr  0.24220716  0.81473799  0.85342562     2.64700
O1372       O  0.27722180  0.85319171  0.85705228    -0.97900
O1373       O  0.20272965  0.84849361  0.85166392    -0.79900
O1374       O  0.27367095  0.78709263  0.86749099    -0.83300
O1375       O  0.27562850  0.78740479  0.83995006    -2.18000
O1376       O  0.24650557  0.67387641  0.82859378    -0.66700
O1377       O  0.24572105  0.70931725  0.81201539    -0.51200
C1378       C  0.24480735  0.68254244  0.81573141     0.72100
O1379       O  0.16367542  0.74660592  0.87483446    -0.59600
O1380       O  0.19915652  0.74726606  0.89143177    -0.51600
C1381       C  0.17275728  0.74574133  0.88769358     0.73900
O1382       O  0.16750981  0.75521969  0.82717773    -0.71000
O1383       O  0.20405646  0.75633736  0.81114560    -0.49700
C1384       C  0.17721063  0.75679566  0.81449771     0.75300
O1385       O  0.25554736  0.67343928  0.87599609    -0.66300
O1386       O  0.24522400  0.70850507  0.89171552    -0.53500
C1387       C  0.25178022  0.68249347  0.88873392     0.73700
Zr1388     Zr  0.24928842  0.69402490  0.85231220     2.77500
O1389       O  0.21088026  0.65953071  0.85679749    -0.97100
O1390       O  0.28530403  0.65677417  0.84975558    -0.77900
Zr1391     Zr  0.18547289  0.75052036  0.85127789     2.70100
O1392       O  0.15162184  0.71050779  0.84887903    -0.79100
O1393       O  0.14730488  0.78589700  0.85224696    -0.98200
Zr1394     Zr  0.24366265  0.75299035  0.87902676     2.21500
Zr1395     Zr  0.24832132  0.75502024  0.82520353     2.11100
O1396       O  0.21822926  0.72239932  0.83812294    -2.46900
O1397       O  0.21547516  0.72097358  0.86522172    -0.78900
O1398       O  0.27934221  0.72661767  0.83964553    -0.71100
O1399       O  0.21210567  0.78234199  0.86584257    -2.32100
O1400       O  0.27773509  0.72514955  0.86646628    -2.28300
O1401       O  0.21519957  0.78318078  0.83856893    -0.72900
H1402       H  0.28745943  0.80005627  0.83430410     0.79100
H1403       H  0.19915134  0.79265580  0.87193939     0.80200
H1404       H  0.20698667  0.71034636  0.83186140     0.82400
H1405       H  0.28983905  0.71407155  0.87262758     0.80000
H1406       H  0.18984448  0.84345330  0.85958560     0.43100
H1407       H  0.15365872  0.79978175  0.85956245     0.42000
H1408       H  0.15530078  0.70233711  0.83940487     0.41700
H1409       H  0.19464590  0.66628537  0.85100010     0.39700
H1410       H  0.27444370  0.63843394  0.85061305     0.42800
H1411       H  0.34826461  0.71664870  0.86023216     0.37600
H1412       H  0.33107576  0.81090502  0.86523715     0.43700
H1413       H  0.29469328  0.84639908  0.85222822     0.40100
H1414       H  0.21727931  0.64149192  0.85225569     0.45000
H1415       H  0.36531544  0.74558677  0.85802616     0.43700
H1416       H  0.27026789  0.86930582  0.85120428     0.43900
H1417       H  0.14903862  0.79684716  0.84336147     0.44200
O1418       O  0.32359449  0.74281281  0.17416552    -0.74600
O1419       O  0.28823908  0.74619954  0.19075792    -0.53500
C1420       C  0.31467151  0.74376137  0.18695088     0.79100
O1421       O  0.25452360  0.83319194  0.12720051    -0.59200
O1422       O  0.25234275  0.79721574  0.11080576    -0.52300
C1423       C  0.25483114  0.82383902  0.11433759     0.71100
O1424       O  0.24735603  0.83094344  0.17480041    -0.73800
O1425       O  0.24430995  0.79505498  0.19118988    -0.54400
C1426       C  0.24492178  0.82178912  0.18754776     0.77100
O1427       O  0.32217891  0.73534249  0.12674695    -0.58900
O1428       O  0.28843431  0.74665890  0.11057312    -0.52100
C1429       C  0.31368667  0.73839751  0.11391004     0.73700
Zr1430     Zr  0.30376781  0.74415259  0.15054529     2.54700
O1431       O  0.34480769  0.77685110  0.14913246    -0.79500
O1432       O  0.33414829  0.70182827  0.15205341    -0.92900
Zr1433     Zr  0.25202123  0.81158917  0.15097900     2.64700
O1434       O  0.29775087  0.83697483  0.15315135    -0.97900
O1435       O  0.22601872  0.85676892  0.15066531    -0.79900
O1436       O  0.27780136  0.77759461  0.16463487    -0.83300
O1437       O  0.27923152  0.77922564  0.13719191    -2.18000
O1438       O  0.23957032  0.67237132  0.12515291    -0.66700
O1439       O  0.24040062  0.70987106  0.10966573    -0.51200
C1440       C  0.23988277  0.68289199  0.11256268     0.72100
O1441       O  0.16311124  0.75380720  0.17314453    -0.59600
O1442       O  0.19761600  0.75073873  0.19018000    -0.51600
C1443       C  0.17126457  0.75149093  0.18608847     0.73900
O1444       O  0.16576514  0.76594917  0.12555452    -0.71000
O1445       O  0.20192177  0.75936741  0.10989872    -0.49700
C1446       C  0.17561645  0.76455615  0.11284481     0.75300
O1447       O  0.23634202  0.67029026  0.17319007    -0.66300
O1448       O  0.23947782  0.70459617  0.19035737    -0.53500
C1449       C  0.23745468  0.67810960  0.18626629     0.73700
Zr1450     Zr  0.23705160  0.69117302  0.14944393     2.77500
O1451       O  0.19534377  0.65949164  0.14766046    -0.97100
O1452       O  0.27056396  0.65131995  0.14981569    -0.77900
Zr1453     Zr  0.18424978  0.75808191  0.14961482     2.70100
O1454       O  0.14595315  0.72269361  0.14653999    -0.79100
O1455       O  0.15067293  0.79781381  0.15144481    -0.98200
Zr1456     Zr  0.24317830  0.75021912  0.17762280     2.21500
Zr1457     Zr  0.24487135  0.75306858  0.12362248     2.11100
O1458       O  0.21046835  0.72477245  0.13594952    -2.46900
O1459       O  0.20986428  0.72384390  0.16325552    -0.78900
O1460       O  0.27092254  0.71811345  0.13637173    -0.71100
O1461       O  0.21711049  0.78451945  0.16388755    -2.32100
O1462       O  0.27014101  0.71703718  0.16380188    -2.28300
O1463       O  0.21778007  0.78662177  0.13686702    -0.72900
H1464       H  0.29264299  0.78954852  0.13126345     0.79100
H1465       H  0.20598030  0.79701162  0.16987294     0.80200
H1466       H  0.19779662  0.71481576  0.12946488     0.82400
H1467       H  0.28039613  0.70386956  0.16978878     0.80000
H1468       H  0.20556519  0.85086288  0.15078233     0.43100
H1469       H  0.15241946  0.80480276  0.16128306     0.42000
H1470       H  0.15469424  0.70422525  0.14932069     0.41700
H1471       H  0.18606155  0.66478423  0.13865508     0.39700
H1472       H  0.25837454  0.63392647  0.15101042     0.42800
H1473       H  0.32668775  0.68865007  0.14464921     0.37600
H1474       H  0.34583472  0.78627826  0.15850034     0.43700
H1475       H  0.29254782  0.85756799  0.15374054     0.40100
H1476       H  0.20347400  0.64022268  0.14581577     0.45000
H1477       H  0.32879017  0.69230921  0.16100641     0.43700
H1478       H  0.30469734  0.83221596  0.16272410     0.43900
H1479       H  0.15942898  0.81335625  0.14571669     0.44200
O1480       O  0.49160944  0.92277584  0.67262205    -0.74600
O1481       O  0.49356593  0.95834375  0.68934658    -0.53500
C1482       C  0.49249896  0.93160757  0.68547036     0.79100
O1483       O  0.07611100  0.50940304  0.62499862    -0.59200
O1484       O  0.04044901  0.50247062  0.60905794    -0.52300
C1485       C  0.06673674  0.50750882  0.61218307     0.71100
O1486       O  0.07659986  0.50084088  0.67255144    -0.73800
O1487       O  0.04171408  0.50184514  0.68946930    -0.54400
C1488       C  0.06819734  0.50084189  0.68544316     0.77100
O1489       O  0.48520637  0.92180669  0.62529079    -0.58900
O1490       O  0.49209106  0.95742970  0.60906091    -0.52100
C1491       C  0.48709764  0.93119713  0.61254934     0.73700
Zr1492     Zr  0.48972251  0.94267554  0.64902006     2.54700
O1493       O  0.03469147  0.90525300  0.65156850    -0.79500
O1494       O  0.44549606  0.91454193  0.65088292    -0.92900
Zr1495     Zr  0.05667898  0.50164755  0.64897857     2.64700
O1496       O  0.09160132  0.96311327  0.64683371    -0.97900
O1497       O  0.09799665  0.53403664  0.65010948    -0.79900
O1498       O  0.02861452  0.97405904  0.66333003    -0.83300
O1499       O  0.03032061  0.97138274  0.63619000    -2.18000
O1500       O  0.41921955  0.49526803  0.62306106    -0.66700
O1501       O  0.45647924  0.50030118  0.60806306    -0.51200
C1502       C  0.42978178  0.49682277  0.61047606     0.72100
O1503       O  0.49841942  0.58225884  0.67087142    -0.59600
O1504       O  0.49932467  0.54837897  0.68828920    -0.51600
C1505       C  0.49858225  0.57470702  0.68388337     0.73900
O1506       O  0.50551736  0.57893844  0.62381997    -0.71000
O1507       O  0.50212811  0.54135970  0.60836092    -0.49700
C1508       C  0.50462010  0.56829500  0.61126367     0.75300
O1509       O  0.41631489  0.50652038  0.67059378    -0.66300
O1510       O  0.45002846  0.50733941  0.68792220    -0.53500
C1511       C  0.42367904  0.50850175  0.68363122     0.73700
Zr1512     Zr  0.43768610  0.50249274  0.64736136     2.77500
O1513       O  0.40791122  0.54471041  0.64390826    -0.97100
O1514       O  0.39358490  0.98537692  0.65001156    -0.77900
Zr1515     Zr  0.50186449  0.55991508  0.64778949     2.70100
O1516       O  0.46855543  0.59972687  0.64578099    -0.79100
O1517       O  0.04230570  0.59460232  0.65078362    -0.98200
Zr1518     Zr  0.49668002  0.50151314  0.67603267     2.21500
Zr1519     Zr  0.49864322  0.49786490  0.62207144     2.11100
O1520       O  0.46965199  0.53136858  0.63416425    -2.46900
O1521       O  0.46884900  0.53215111  0.66127318    -0.78900
O1522       O  0.46407210  0.97560013  0.63502759    -0.71100
O1523       O  0.02802632  0.53271687  0.66312463    -2.32100
O1524       O  0.46411722  0.97714293  0.66248262    -2.28300
O1525       O  0.02884019  0.53371990  0.63563576    -0.72900
H1526       H  0.04200192  0.95959393  0.63012616     0.79100
H1527       H  0.04023975  0.54411213  0.66925091     0.80200
H1528       H  0.45918474  0.54326247  0.62764721     0.82400
H1529       H  0.45075078  0.96729954  0.66861121     0.80000
H1530       H  0.11457669  0.52121155  0.65156871     0.43100
H1531       H  0.05571040  0.58617747  0.64385340     0.42000
H1532       H  0.48083219  0.61722928  0.64623840     0.41700
H1533       H  0.41876280  0.56067927  0.64844063     0.39700
H1534       H  0.39730300  0.96597250  0.64610495     0.42800
H1535       H  0.43209440  0.92386498  0.64424988     0.37600
H1536       H  0.02372025  0.88744062  0.65371584     0.43700
H1537       H  0.08001397  0.94616072  0.64971794     0.40100
H1538       H  0.40886097  0.54892356  0.63369585     0.45000
H1539       H  0.43774166  0.91902919  0.66034246     0.43700
H1540       H  0.09419956  0.96065858  0.63654620     0.43900
H1541       H  0.03645838  0.61315285  0.64660674     0.44200
O1542       O  0.07729556  0.49886760  0.32934249    -0.74600
O1543       O  0.04246513  0.49652061  0.31234199    -0.53500
C1544       C  0.06890186  0.49713473  0.31646210     0.79100
O1545       O  0.48973799  0.91757593  0.37672513    -0.59200
O1546       O  0.49161822  0.95472681  0.39250636    -0.52300
C1547       C  0.48919074  0.92785032  0.38940280     0.71100
O1548       O  0.49479205  0.91695469  0.32874874    -0.73800
O1549       O  0.49582755  0.95191697  0.31192471    -0.54400
C1550       C  0.49474187  0.92535985  0.31578135     0.77100
O1551       O  0.07484589  0.50801851  0.37709016    -0.58900
O1552       O  0.03841760  0.50108995  0.39249137    -0.52100
C1553       C  0.06479951  0.50615364  0.38976810     0.73700
Zr1554     Zr  0.05653297  0.50203925  0.35269593     2.54700
O1555       O  0.10268221  0.97940411  0.35324642    -0.79500
O1556       O  0.09045014  0.54211489  0.35113481    -0.92900
Zr1557     Zr  0.49609532  0.93703993  0.35273307     2.64700
O1558       O  0.05563913  0.91567106  0.35018231    -0.97900
O1559       O  0.46203811  0.89711831  0.35256368    -0.79900
O1560       O  0.03532589  0.97391304  0.33769347    -0.83300
O1561       O  0.03557743  0.97442461  0.36504828    -2.18000
O1562       O  0.48911557  0.58224647  0.37509056    -0.66700
O1563       O  0.49482765  0.54629620  0.39122451    -0.51200
C1564       C  0.49140786  0.57280332  0.38778901     0.72100
O1565       O  0.41925385  0.49281171  0.32869352    -0.59600
O1566       O  0.45396007  0.49646289  0.31185028    -0.51600
C1567       C  0.42752627  0.49443133  0.31576094     0.73900
O1568       O  0.42019666  0.48874524  0.37667422    -0.71000
O1569       O  0.45592362  0.49680474  0.39253310    -0.49700
C1570       C  0.42963256  0.49160939  0.38942490     0.75300
O1571       O  0.48785216  0.57860402  0.32756701    -0.66300
O1572       O  0.49488696  0.54282647  0.31141062    -0.53500
C1573       C  0.49020779  0.56919395  0.31484453     0.73700
Zr1574     Zr  0.49111651  0.56038759  0.35158085     2.77500
O1575       O  0.44815776  0.58977096  0.35064168    -0.97100
O1576       O  0.03382404  0.59461952  0.34841002    -0.77900
Zr1577     Zr  0.43923570  0.49212870  0.35245848     2.70100
O1578       O  0.40010084  0.52638898  0.35290263    -0.79100
O1579       O  0.39840145  0.96262973  0.35196908    -0.98200
Zr1580     Zr  0.49911751  0.49897057  0.32500022     2.21500
Zr1581     Zr  0.49872930  0.50097871  0.37873523     2.11100
O1582       O  0.46455908  0.52734316  0.36559364    -2.46900
O1583       O  0.46511342  0.52553152  0.33834688    -0.78900
O1584       O  0.02571704  0.53203317  0.36567151    -0.71100
O1585       O  0.46635695  0.96720782  0.33890896    -2.32100
O1586       O  0.02620691  0.53058428  0.33816936    -2.28300
O1587       O  0.46566402  0.96751016  0.36602458    -0.72900
H1588       H  0.04876210  0.96485936  0.37130556     0.79100
H1589       H  0.45428065  0.95537551  0.33291064     0.80200
H1590       H  0.45155003  0.53759662  0.37168309     0.82400
H1591       H  0.03764204  0.54245867  0.33197136     0.80000
H1592       H  0.44312782  0.90642240  0.35354016     0.43100
H1593       H  0.40379204  0.94847310  0.35926699     0.42000
H1594       H  0.40560407  0.54122119  0.34590835     0.41700
H1595       H  0.44117845  0.59078380  0.36047591     0.39700
H1596       H  0.04687195  0.59113255  0.35645553     0.42800
H1597       H  0.10953316  0.53294879  0.35119845     0.37600
H1598       H  0.09555047  0.96080957  0.35699963     0.43700
H1599       H  0.06175176  0.91350051  0.36011904     0.40100
H1600       H  0.45528930  0.60946903  0.34859099     0.45000
H1601       H  0.08921392  0.55207923  0.36035768     0.43700
H1602       H  0.05076566  0.89584895  0.34705647     0.43900
H1603       H  0.38156409  0.97264684  0.35592709     0.44200
N1604       N  0.01914917  0.75061566  0.52142243    -0.36000
N1605       N  0.01826022  0.70548274  0.50015870    -0.56500
N1606       N  0.01003998  0.75025894  0.47924081    -0.35900
N1607       N  0.01108295  0.79521421  0.50057985    -0.56500
C1608       C  0.02811450  0.72785333  0.52909971     0.27600
C1609       C  0.02304082  0.77441808  0.52953940     0.27600
C1610       C  0.00442252  0.72647217  0.47133709     0.27600
C1611       C  0.00282489  0.77337454  0.47134905     0.27600
C1612       C  0.02147249  0.68832728  0.51150172     0.36300
C1613       C  0.01706777  0.68815535  0.48871589     0.36300
C1614       C  0.01048713  0.81236794  0.51211147     0.36300
C1615       C  0.00881687  0.81251356  0.48921718     0.36300
C1616       C  0.03815678  0.73738011  0.54208789    -0.21200
C1617       C  0.03488800  0.76668575  0.54238106    -0.21200
C1618       C  0.99317759  0.73469503  0.45841525    -0.21200
C1619       C  0.99244210  0.76418453  0.45837854    -0.21200
C1620       C  0.02232571  0.65975757  0.50726043    -0.22300
C1621       C  0.02041800  0.65971398  0.49278093    -0.22300
C1622       C  0.00733085  0.84081527  0.50804908    -0.22300
C1623       C  0.00706330  0.84097634  0.49353070    -0.22300
C1624       C  0.02456108  0.69837568  0.52552261    -0.17600
C1625       C  0.01478634  0.80285573  0.52613298    -0.17600
C1626       C  0.00648657  0.80274722  0.47510267    -0.17600
C1627       C  0.01103349  0.69755155  0.47484141    -0.17600
H1628       H  0.04632117  0.72438809  0.55062843     0.15300
H1629       H  0.04029403  0.78070226  0.55115351     0.15300
H1630       H  0.98663961  0.72086527  0.44975327     0.15300
H1631       H  0.98510642  0.77739729  0.44973879     0.15300
H1632       H  0.02462280  0.64091596  0.51382066     0.13600
H1633       H  0.02054557  0.64077224  0.48610631     0.13600
H1634       H  0.00619232  0.85961700  0.51478684     0.13600
H1635       H  0.00493692  0.85982009  0.48694929     0.13600
H1636       H  0.00721987  0.74951604  0.51218118     0.26800
H1637       H  0.02155642  0.75092480  0.48860797     0.26800
N1638       N  0.24655384  0.01579124  0.52198790    -0.36000
N1639       N  0.20278449  0.02550229  0.50059470    -0.56500
N1640       N  0.24723394  0.02219894  0.47955232    -0.35900
N1641       N  0.29124223  0.01454538  0.50093035    -0.56500
C1642       C  0.22393763  0.02320926  0.53006132     0.27600
C1643       C  0.27012819  0.01737443  0.53028398     0.27600
C1644       C  0.22503830  0.03157088  0.47166419     0.27600
C1645       C  0.27128710  0.02603951  0.47183942     0.27600
C1646       C  0.18563087  0.02052829  0.51177811     0.36300
C1647       C  0.18597667  0.02367834  0.48901891     0.36300
C1648       C  0.30693072  0.00628120  0.51217388     0.36300
C1649       C  0.30725325  0.00936331  0.48935919     0.36300
C1650       C  0.23324660  0.02946615  0.54364568    -0.21200
C1651       C  0.26235980  0.02579988  0.54378249    -0.21200
C1652       C  0.23515089  0.04150073  0.45880688    -0.21200
C1653       C  0.26432229  0.03812608  0.45894333    -0.21200
C1654       C  0.15759114  0.01612297  0.50734782    -0.22300
C1655       C  0.15781326  0.01809475  0.49286606    -0.22300
C1656       C  0.33337759  0.99635795  0.50776692    -0.22300
C1657       C  0.33354641  0.99822226  0.49326288    -0.22300
C1658       C  0.19485292  0.02162596  0.52593550    -0.17600
C1659       C  0.29811055  0.00920962  0.52635383    -0.17600
C1660       C  0.29884925  0.01602281  0.47543033    -0.17600
C1661       C  0.19573735  0.02843012  0.47513383    -0.17600
H1662       H  0.22036750  0.03535045  0.55266783     0.15300
H1663       H  0.27610359  0.02841648  0.55291009     0.15300
H1664       H  0.22281217  0.04958520  0.45003171     0.15300
H1665       H  0.27866614  0.04315747  0.45031761     0.15300
H1666       H  0.13896262  0.01208964  0.51386845     0.13600
H1667       H  0.13938618  0.01589470  0.48598152     0.13600
H1668       H  0.35072874  0.98874105  0.51431662     0.13600
H1669       H  0.35108275  0.99237417  0.48639541     0.13600
H1670       H  0.24538020  0.00638413  0.51206242     0.26800
H1671       H  0.24560655  0.00987511  0.48862481     0.26800
C1672       C  0.49428002  0.74645853  0.25034469    -0.01800
C1673       C  0.01170049  0.88160815  0.28143771    -0.04800
C1674       C  0.49546971  0.85444003  0.28585618     0.09300
C1675       C  0.47690636  0.85391239  0.29758090    -0.02200
C1676       C  0.47539051  0.87781319  0.30675565    -0.00500
C1677       C  0.49323162  0.90230807  0.30466561    -0.04100
C1678       C  0.01244783  0.90534115  0.29082397     0.02900
C1679       C  0.49631272  0.82894286  0.27599667     0.09800
C1680       C  0.45895349  0.82876488  0.30013628     0.35700
C1681       C  0.02617241  0.93198571  0.28643048     0.39100
C1682       C  0.02123289  0.81246584  0.27463366    -0.04400
C1683       C  0.01978486  0.78596646  0.26716861     0.02700
C1684       C  0.49446499  0.77648082  0.25912719    -0.04000
C1685       C  0.47241117  0.79836534  0.25831495    -0.00300
C1686       C  0.47334218  0.82349421  0.26687339    -0.02800
C1687       C  0.04746768  0.82129528  0.28184865     0.36400
C1688       C  0.44966167  0.79860256  0.24795530     0.40000
C1689       C  0.04437537  0.76753016  0.26908089     0.39200
C1690       C  0.45074917  0.84491594  0.26598315     0.36100
C1691       C  0.02547451  0.88371660  0.26777784     0.36800
C1692       C  0.45374324  0.87785783  0.31772274     0.40000
N1693       N  0.06506653  0.75490190  0.27151915    -0.38000
N1694       N  0.06842862  0.82854921  0.28742625    -0.39600
N1695       N  0.43113012  0.80106346  0.23994797    -0.37400
N1696       N  0.43291012  0.86200779  0.26525533    -0.39800
N1697       N  0.44438723  0.80889636  0.30216835    -0.39500
N1698       N  0.43592457  0.87766950  0.32619652    -0.37200
N1699       N  0.03670427  0.95334259  0.28275010    -0.38200
N1700       N  0.03650846  0.88541430  0.25688950    -0.39900
C1701       C  0.46530750  0.63414102  0.29409262    -0.04800
C1702       C  0.48872192  0.63844344  0.28487737     0.09300
C1703       C  0.00693906  0.61975438  0.28489904    -0.02200
C1704       C  0.00729107  0.59557746  0.29386484    -0.00500
C1705       C  0.48795276  0.59090491  0.30345153    -0.04100
C1706       C  0.46506388  0.61064104  0.30344882     0.02900
C1707       C  0.49059264  0.66548638  0.27629177     0.09800
C1708       C  0.03051833  0.62428987  0.27519800     0.35700
C1709       C  0.44076091  0.60623578  0.31276028     0.39100
C1710       C  0.98945462  0.69356753  0.28365997    -0.04400
C1711       C  0.99023230  0.71956611  0.27582216     0.02700
C1712       C  0.49280610  0.71824295  0.26010421    -0.04000
C1713       C  0.48930526  0.69008096  0.25359014    -0.00300
C1714       C  0.48649766  0.66468905  0.26169620    -0.02800
C1715       C  0.99345873  0.69417512  0.29888707     0.36400
C1716       C  0.49093531  0.68549532  0.23849424     0.40000
C1717       C  0.98885557  0.74542264  0.28430560     0.39200
C1718       C  0.48029524  0.63716506  0.25490010     0.36100
C1719       C  0.44171125  0.65429941  0.29411656     0.36800
C1720       C  0.03053118  0.57514997  0.29284901     0.40000
N1721       N  0.98747878  0.76484283  0.29194104    -0.38000
N1722       N  0.99674469  0.69462810  0.31098228    -0.39600
N1723       N  0.49247530  0.67901917  0.22673001    -0.37400
N1724       N  0.47551877  0.61525229  0.24948768    -0.39800
N1725       N  0.04944444  0.62712442  0.26743828    -0.39500
N1726       N  0.04886231  0.55866716  0.29182604    -0.37200
N1727       N  0.42124181  0.60262725  0.32008674    -0.38200
N1728       N  0.42300498  0.67049951  0.29415276    -0.39900
C1729       C  0.99134298  0.63672770  0.44911572    -0.04800
C1730       C  0.01059994  0.64249233  0.43795366     0.09300
C1731       C  0.03153575  0.66447579  0.43960306    -0.02200
C1732       C  0.03320348  0.68027886  0.45227866    -0.00500
C1733       C  0.01214836  0.67643597  0.46284853    -0.04100
C1734       C  0.99093124  0.65475824  0.46111478     0.02900
C1735       C  0.49047331  0.62410610  0.42546057     0.09800
C1736       C  0.05093113  0.67144328  0.42813288     0.35700
C1737       C  0.96797546  0.65172681  0.47130986     0.39100
C1738       C  0.46615361  0.62411316  0.41648181    -0.04400
C1739       C  0.46615590  0.60764945  0.40390434     0.02700
C1740       C  0.49142636  0.59366950  0.39959547    -0.04000
C1741       C  0.02995419  0.59451544  0.40668294    -0.00300
C1742       C  0.03150981  0.60869628  0.41979016    -0.02800
C1743       C  0.44132124  0.64117055  0.42011691     0.36400
C1744       C  0.05567400  0.58288649  0.40038002     0.40000
C1745       C  0.44016361  0.60469998  0.39559697     0.39200
C1746       C  0.05635527  0.60471152  0.42875882     0.36100
C1747       C  0.45597442  0.60673230  0.44956570     0.36800
C1748       C  0.05606597  0.70136370  0.45427931     0.40000
N1749       N  0.41928386  0.60229050  0.38906848    -0.38000
N1750       N  0.42159163  0.65494336  0.42297558    -0.39600
N1751       N  0.07643127  0.57457222  0.39515958    -0.37400
N1752       N  0.07594962  0.60147464  0.43605834    -0.39800
N1753       N  0.06648693  0.67688525  0.41900675    -0.39500
N1754       N  0.07420674  0.71822817  0.45593835    -0.37200
N1755       N  0.94951710  0.64926649  0.47937061    -0.38200
N1756       N  0.44293711  0.58541560  0.44902751    -0.39900
C1757       C  0.02789525  0.89969644  0.42428320    -0.04800
C1758       C  0.01075800  0.87455461  0.42481473     0.09300
C1759       C  0.45917345  0.86947425  0.41397358    -0.02200
C1760       C  0.46292709  0.88723852  0.40198669    -0.00500
C1761       C  0.48562229  0.90769851  0.40155384    -0.04100
C1762       C  0.02925625  0.91617997  0.41183989     0.02900
C1763       C  0.00969648  0.85693723  0.43806910     0.09800
C1764       C  0.43735716  0.84700831  0.41391668     0.35700
C1765       C  0.04960009  0.93984118  0.41105132     0.39100
C1766       C  0.44992346  0.85475136  0.44755611    -0.04400
C1767       C  0.44832766  0.83644197  0.45942300     0.02700
C1768       C  0.00816950  0.82389596  0.46318351    -0.04000
C1769       C  0.03298969  0.82434120  0.45463793    -0.00300
C1770       C  0.03338164  0.83996657  0.44192180    -0.02800
C1771       C  0.42680150  0.87452007  0.44465855     0.36400
C1772       C  0.05815649  0.80844941  0.45894167     0.40000
C1773       C  0.42204311  0.83440471  0.46750436     0.39200
C1774       C  0.05782061  0.83785158  0.43254492     0.36100
C1775       C  0.04384698  0.90892344  0.43667566     0.36800
C1776       C  0.44271044  0.88515730  0.39040379     0.40000
N1777       N  0.40104864  0.83250255  0.47393668    -0.38000
N1778       N  0.40835911  0.89032960  0.44234515    -0.39600
N1779       N  0.07825704  0.79594156  0.46247559    -0.37400
N1780       N  0.07719289  0.83597923  0.42499748    -0.39800
N1781       N  0.41991606  0.82910385  0.41396759    -0.39500
N1782       N  0.42625874  0.88356349  0.38128271    -0.37200
N1783       N  0.06652276  0.95814687  0.41054788    -0.38200
N1784       N  0.05650626  0.91636939  0.44656014    -0.39900
C1785       C  0.14934765  0.53885412  0.44536526    -0.04800
C1786       C  0.14218517  0.02766795  0.43814442     0.09300
C1787       C  0.15030080  0.00154769  0.44448068    -0.02200
C1788       C  0.16689252  0.00188015  0.45688057    -0.00500
C1789       C  0.17478318  0.02833267  0.46323296    -0.04100
C1790       C  0.16586873  0.53798197  0.45779476     0.02900
C1791       C  0.12415192  0.02688577  0.42513543     0.09800
C1792       C  0.14121338  0.97433243  0.43827536     0.35700
C1793       C  0.17868018  0.56418100  0.46342821     0.39100
C1794       C  0.13184744  0.50730815  0.41350279    -0.04400
C1795       C  0.11432304  0.50527274  0.40136071     0.02700
C1796       C  0.08432639  0.51019579  0.40232908    -0.04000
C1797       C  0.07660166  0.02362663  0.41457000    -0.00300
C1798       C  0.09423969  0.02742480  0.42647503    -0.02800
C1799       C  0.16241599  0.50208076  0.41254439     0.36400
C1800       C  0.04577474  0.02430822  0.41685739     0.40000
C1801       C  0.12742478  0.49709189  0.38810115     0.39200
C1802       C  0.08153760  0.03112652  0.44034581     0.36100
C1803       C  0.14475017  0.56599401  0.43823386     0.36800
C1804       C  0.17653953  0.97501395  0.46293863     0.40000
N1805       N  0.13815597  0.49060819  0.37757823    -0.38000
N1806       N  0.18681023  0.49797273  0.41183140    -0.39600
N1807       N  0.02130348  0.02464284  0.41887922    -0.37400
N1808       N  0.07140039  0.03410538  0.45137628    -0.39800
N1809       N  0.13370694  0.95272677  0.43331471    -0.39500
N1810       N  0.18435710  0.95364527  0.46779299    -0.37200
N1811       N  0.18877600  0.58511363  0.46797122    -0.38200
N1812       N  0.14100478  0.58762062  0.43252446    -0.39900
C1813       C  0.34783529  0.51713649  0.44486441    -0.04800
C1814       C  0.35310500  0.49076664  0.43792987     0.09300
C1815       C  0.33139112  0.98567139  0.44193689    -0.02200
C1816       C  0.31594704  0.98747604  0.45465398    -0.00500
C1817       C  0.31929709  0.01178051  0.46353274    -0.04100
C1818       C  0.32961534  0.51783838  0.45668521     0.02900
C1819       C  0.37220200  0.48993127  0.42533103     0.09800
C1820       C  0.32726143  0.96112742  0.43262699     0.35700
C1821       C  0.32267450  0.54514692  0.46326947     0.39100
C1822       C  0.39689594  0.99308309  0.42697171    -0.04400
C1823       C  0.41504999  0.99037987  0.41520144     0.02700
C1824       C  0.40908789  0.48929615  0.40154114    -0.04000
C1825       C  0.38010904  0.49808708  0.40017948    -0.00300
C1826       C  0.36164459  0.49755151  0.41195759    -0.02800
C1827       C  0.40653805  0.98397385  0.44082575     0.36400
C1828       C  0.36906440  0.50857722  0.38688044     0.40000
C1829       C  0.44285535  0.97737126  0.41740591     0.39200
C1830       C  0.33152122  0.50438355  0.41031815     0.36100
C1831       C  0.36122847  0.54349711  0.43985026     0.36800
C1832       C  0.29651701  0.96432926  0.45864527     0.40000
N1833       N  0.46489667  0.96712810  0.41966342    -0.38000
N1834       N  0.41403318  0.97679857  0.45189439    -0.39600
N1835       N  0.35976024  0.51703393  0.37638343    -0.37400
N1836       N  0.30742475  0.50947541  0.40899557    -0.39800
N1837       N  0.32389672  0.94166750  0.42512678    -0.39500
N1838       N  0.28116568  0.94577673  0.46188095    -0.37200
N1839       N  0.31691435  0.56691480  0.46847641    -0.38200
N1840       N  0.37194612  0.56455966  0.43590924    -0.39900
C1841       C  0.09500300  0.52254982  0.57488490    -0.04800
C1842       C  0.12329217  0.01790595  0.57561487     0.09300
C1843       C  0.13553920  0.01130901  0.58879951    -0.02200
C1844       C  0.11821394  0.00976126  0.60100714    -0.00500
C1845       C  0.08708606  0.51135213  0.59998562    -0.04100
C1846       C  0.07675668  0.52129104  0.58668664     0.02900
C1847       C  0.14115097  0.01880072  0.56257028     0.09800
C1848       C  0.16597603  0.00541147  0.58969283     0.35700
C1849       C  0.04729332  0.53018507  0.58470211     0.39100
C1850       C  0.16064625  0.53694969  0.56016133    -0.04400
C1851       C  0.17765315  0.53662338  0.54788096     0.02700
C1852       C  0.17326258  0.02060468  0.53744284    -0.04000
C1853       C  0.16577425  0.99385852  0.54347084    -0.00300
C1854       C  0.14930413  0.99292563  0.55588527    -0.02800
C1855       C  0.16209156  0.56130354  0.56976447     0.36400
C1856       C  0.17575160  0.96738512  0.53704528     0.40000
C1857       C  0.19694930  0.56051124  0.54491009     0.39200
C1858       C  0.14086105  0.96537596  0.56181569     0.36100
C1859       C  0.08412624  0.53210210  0.56133109     0.36800
C1860       C  0.13134989  0.00193625  0.61429857     0.40000
N1861       N  0.21234273  0.57958304  0.54254226    -0.38000
N1862       N  0.16313234  0.58068000  0.57746532    -0.39600
N1863       N  0.18388786  0.94639023  0.53186929    -0.37400
N1864       N  0.13416611  0.94335101  0.56651475    -0.39800
N1865       N  0.19022244  0.00050489  0.59035276    -0.39500
N1866       N  0.14205291  0.99576282  0.62486636    -0.37200
N1867       N  0.02389883  0.53694333  0.58252121    -0.38200
N1868       N  0.07558749  0.53952044  0.55048740    -0.39900
C1869       C  0.34992880  0.51796543  0.55360192    -0.04800
C1870       C  0.35763636  0.49176395  0.55998946     0.09300
C1871       C  0.33689262  0.97498246  0.55737692    -0.02200
C1872       C  0.31994758  0.97803077  0.54513456    -0.00500
C1873       C  0.31916699  0.00471958  0.53801299    -0.04100
C1874       C  0.33216525  0.51779818  0.54160404     0.02900
C1875       C  0.37566444  0.49214302  0.57300893     0.09800
C1876       C  0.33782730  0.94762385  0.56468253     0.35700
C1877       C  0.32370257  0.54474557  0.53520005     0.39100
C1878       C  0.36347539  0.49875738  0.58620139    -0.04400
C1879       C  0.38067906  0.49971001  0.59848289     0.02700
C1880       C  0.41065229  0.49457566  0.59763518    -0.04000
C1881       C  0.41885095  0.98972727  0.58544081    -0.00300
C1882       C  0.39989827  0.98852630  0.57385673    -0.02800
C1883       C  0.33313558  0.50525225  0.58703018     0.36400
C1884       C  0.44855549  0.98214053  0.58285630     0.40000
C1885       C  0.36721590  0.50689247  0.61179704     0.39200
C1886       C  0.41034492  0.98057595  0.55995685     0.36100
C1887       C  0.36019408  0.54506317  0.55947654     0.36800
C1888       C  0.30234366  0.95412695  0.54018837     0.40000
N1889       N  0.35617889  0.51256747  0.62235650    -0.38000
N1890       N  0.30900505  0.51071756  0.58761251    -0.39600
N1891       N  0.47210058  0.97621553  0.58043064    -0.37400
N1892       N  0.41862612  0.97434140  0.54887319    -0.39800
N1893       N  0.33856887  0.92584926  0.57056765    -0.39500
N1894       N  0.28808217  0.93514181  0.53631858    -0.37200
N1895       N  0.31692936  0.56615787  0.53001483    -0.38200
N1896       N  0.36844286  0.56658383  0.56424214    -0.39900
C1897       C  0.03059300  0.63162060  0.58733099    -0.04800
C1898       C  0.50971816  0.62377159  0.57488568     0.09300
C1899       C  0.48820041  0.60226826  0.57584726    -0.02200
C1900       C  0.48559502  0.58559183  0.58812748    -0.00500
C1901       C  0.50602436  0.58826866  0.59908200    -0.04100
C1902       C  0.02683809  0.61528699  0.59974681     0.02900
C1903       C  0.01573544  0.64480322  0.56253322     0.09800
C1904       C  0.46839692  0.59745634  0.56422269     0.35700
C1905       C  0.04717191  0.61866397  0.61121261     0.39100
C1906       C  0.03952983  0.64093456  0.55350791    -0.04400
C1907       C  0.04271893  0.65813576  0.54132304     0.02700
C1908       C  0.02111776  0.67789357  0.53760925    -0.04000
C1909       C  0.48439696  0.68011727  0.54874109    -0.00300
C1910       C  0.48652521  0.66317569  0.56094929    -0.02800
C1911       C  0.06111157  0.61984887  0.55701203     0.36400
C1912       C  0.45898984  0.69734704  0.54654557     0.40000
C1913       C  0.06865400  0.65629299  0.53297754     0.39200
C1914       C  0.46492285  0.66555492  0.57189590     0.36100
C1915       C  0.05341486  0.65300914  0.58652499     0.36800
C1916       C  0.46051495  0.56729722  0.58986487     0.40000
N1917       N  0.08942242  0.65475379  0.52636456    -0.38000
N1918       N  0.07845397  0.60327775  0.55998989    -0.39600
N1919       N  0.43863379  0.71092484  0.54478738    -0.37400
N1920       N  0.44777283  0.66747692  0.58064648    -0.39800
N1921       N  0.45252969  0.59350821  0.55500826    -0.39500
N1922       N  0.43991823  0.55353420  0.59119024    -0.37200
N1923       N  0.06368943  0.62166442  0.62022447    -0.38200
N1924       N  0.07164618  0.67001604  0.58574547    -0.39900
C1925       C  0.45819327  0.89653638  0.57936795    -0.04800
C1926       C  0.00414900  0.87591906  0.57623302     0.09300
C1927       C  0.02571372  0.87428057  0.58675140    -0.02200
C1928       C  0.02373384  0.89098070  0.59923555    -0.00500
C1929       C  0.48402866  0.91055619  0.60075616    -0.04100
C1930       C  0.45864322  0.91004888  0.59269631     0.02900
C1931       C  0.00617693  0.85827092  0.56286680     0.09800
C1932       C  0.05009332  0.85558068  0.58470253     0.35700
C1933       C  0.43258697  0.92197130  0.59852071     0.39100
C1934       C  0.02831497  0.86351923  0.55296388    -0.04400
C1935       C  0.03165129  0.84519758  0.54114596     0.02700
C1936       C  0.01105015  0.82350461  0.53822177    -0.04000
C1937       C  0.46270246  0.82011246  0.54883263    -0.00300
C1938       C  0.46187583  0.83851182  0.56067220    -0.02800
C1939       C  0.04728190  0.88818943  0.55472399     0.36400
C1940       C  0.44382644  0.79512094  0.54831212     0.40000
C1941       C  0.05674996  0.84801954  0.53224022     0.39200
C1942       C  0.44222180  0.83221710  0.57213580     0.36100
C1943       C  0.43359588  0.90006127  0.57018180     0.36800
C1944       C  0.04646536  0.89012959  0.60966775     0.40000
N1945       N  0.07681117  0.84999922  0.52513049    -0.38000
N1946       N  0.06227756  0.90804376  0.55597557    -0.39600
N1947       N  0.42879289  0.77515865  0.54810414    -0.37400
N1948       N  0.42633652  0.82750219  0.58122047    -0.39800
N1949       N  0.06964828  0.84079824  0.58303358    -0.39500
N1950       N  0.06445534  0.88937141  0.61807216    -0.37200
N1951       N  0.41158680  0.93064005  0.60335600    -0.38200
N1952       N  0.41401757  0.90308397  0.56284141    -0.39900
C1953       C  0.10193748  0.72833319  0.20428358    -0.04800
C1954       C  0.10153554  0.74678279  0.21611737     0.09300
C1955       C  0.12540824  0.76488163  0.21888986    -0.02200
C1956       C  0.14833274  0.76654764  0.20917014    -0.00500
C1957       C  0.14821368  0.74892435  0.19694556    -0.04100
C1958       C  0.12540522  0.72893714  0.19492582     0.02900
C1959       C  0.07562507  0.74749037  0.22550873     0.09800
C1960       C  0.12641246  0.78146349  0.23187961     0.35700
C1961       C  0.12647529  0.70804282  0.18353768     0.39100
C1962       C  0.07010249  0.72496297  0.23489448    -0.04400
C1963       C  0.04564086  0.72530322  0.24369806     0.02700
C1964       C  0.02364449  0.74702596  0.24214517    -0.04000
C1965       C  0.03148513  0.77106503  0.23324176    -0.00300
C1966       C  0.05677754  0.77080250  0.22496724    -0.02800
C1967       C  0.09042605  0.70141179  0.23573440     0.36400
C1968       C  0.01307157  0.79578717  0.23139846     0.40000
C1969       C  0.04705161  0.70545259  0.25544214     0.39200
C1970       C  0.06255485  0.79379899  0.21496618     0.36100
C1971       C  0.07820081  0.70850166  0.20179403     0.36800
C1972       C  0.17133928  0.78723451  0.21154207     0.40000
N1973       N  0.04982759  0.69005764  0.26490247    -0.38000
N1974       N  0.10642781  0.68255467  0.23633617    -0.39600
N1975       N  0.49451932  0.81470967  0.22824195    -0.37400
N1976       N  0.06720582  0.81184190  0.20687682    -0.39800
N1977       N  0.12716680  0.79435403  0.24234286    -0.39500
N1978       N  0.18951237  0.80391182  0.21353181    -0.37200
N1979       N  0.12715343  0.69096222  0.17463432    -0.38200
N1980       N  0.05939526  0.69249738  0.19990028    -0.39900
C1981       C  0.37816961  0.76731045  0.20921067    -0.04800
C1982       C  0.38608305  0.74126631  0.21578629     0.09300
C1983       C  0.36968157  0.71600912  0.21317835    -0.02200
C1984       C  0.34578826  0.71679576  0.20398784    -0.00500
C1985       C  0.33737560  0.74309786  0.19787012    -0.04100
C1986       C  0.35390763  0.76820753  0.20035510     0.02900
C1987       C  0.41328975  0.73997317  0.22432570     0.09800
C1988       C  0.37839491  0.68890573  0.21933227     0.35700
C1989       C  0.34697954  0.79466638  0.19302692     0.39100
C1990       C  0.41246229  0.73802418  0.23904341    -0.04400
C1991       C  0.43814615  0.73869779  0.24710973     0.02700
C1992       C  0.46603153  0.74278810  0.24058450    -0.04000
C1993       C  0.46590762  0.74124877  0.22529930    -0.00300
C1994       C  0.43990072  0.74062938  0.21752110    -0.02800
C1995       C  0.38467123  0.73725873  0.24597805     0.36400
C1996       C  0.49129003  0.73713519  0.21679195     0.40000
C1997       C  0.43442907  0.73744507  0.26227794     0.39200
C1998       C  0.44031068  0.74001754  0.20216380     0.36100
C1999       C  0.39598718  0.79289283  0.21076097     0.36800
C2000       C  0.33159293  0.69016644  0.19980029     0.40000
N2001       N  0.42936168  0.73606590  0.27419787    -0.38000
N2002       N  0.36251019  0.73687388  0.25145455    -0.39600
N2003       N  0.01096653  0.73480865  0.20938606    -0.37400
N2004       N  0.44047943  0.73956403  0.18996537    -0.39800
N2005       N  0.38537963  0.66731015  0.22426452    -0.39500
N2006       N  0.32069443  0.66880613  0.19629047    -0.37200
N2007       N  0.34147104  0.81569265  0.18713847    -0.38200
N2008       N  0.41018649  0.81341233  0.21156486    -0.39900
C2009       C  0.27160006  0.61960185  0.05225921    -0.04800
C2010       C  0.24820481  0.61396883  0.06136578     0.09300
C2011       C  0.22770401  0.59275985  0.05754155    -0.02200
C2012       C  0.23051803  0.57741778  0.04476945    -0.00500
C2013       C  0.25465512  0.58202275  0.03600907    -0.04100
C2014       C  0.27507466  0.60334125  0.03975280     0.02900
C2015       C  0.24502914  0.63037506  0.07497214     0.09800
C2016       C  0.20427049  0.58595403  0.06704898     0.35700
C2017       C  0.30040117  0.60741283  0.03111385     0.39100
C2018       C  0.22297029  0.65078986  0.07649057    -0.04400
C2019       C  0.22035527  0.66675858  0.08909566     0.02700
C2020       C  0.24005921  0.66285317  0.10027032    -0.04000
C2021       C  0.26137069  0.64154809  0.09899952    -0.00300
C2022       C  0.26365606  0.62519710  0.08645024    -0.02800
C2023       C  0.20277708  0.65528341  0.06507230     0.36400
C2024       C  0.28161425  0.63708509  0.11039271     0.40000
C2025       C  0.19687535  0.68681175  0.09065198     0.39200
C2026       C  0.28504125  0.60282171  0.08537875     0.36100
C2027       C  0.29249724  0.64166928  0.05594517     0.36800
C2028       C  0.20901326  0.55604069  0.04084228     0.40000
N2029       N  0.17795993  0.70257978  0.09183828    -0.38000
N2030       N  0.18644581  0.65857075  0.05603623    -0.39600
N2031       N  0.29774080  0.63349899  0.11949008    -0.37400
N2032       N  0.30205234  0.58491139  0.08454828    -0.39800
N2033       N  0.18565381  0.58063270  0.07469124    -0.39500
N2034       N  0.19185416  0.53900658  0.03770946    -0.37200
N2035       N  0.32063430  0.61046567  0.02420914    -0.38200
N2036       N  0.30926644  0.65917839  0.05892768    -0.39900
C2037       C  0.27652960  0.85542774  0.07879817    -0.04800
C2038       C  0.25758301  0.87874964  0.07755108     0.09300
C2039       C  0.23943071  0.88568091  0.08896278    -0.02200
C2040       C  0.23931696  0.86860729  0.10129949    -0.00500
C2041       C  0.25784993  0.84475981  0.10245228    -0.04100
C2042       C  0.27709355  0.83890186  0.09125175     0.02900
C2043       C  0.25717292  0.89632644  0.06427279     0.09800
C2044       C  0.22059247  0.91025422  0.08788173     0.35700
C2045       C  0.29791055  0.81605561  0.09251436     0.39100
C2046       C  0.23422119  0.89356933  0.05459796    -0.04400
C2047       C  0.23310789  0.91135734  0.04254952     0.02700
C2048       C  0.25575111  0.93091838  0.03967074    -0.04000
C2049       C  0.27932044  0.93271750  0.04905896    -0.00300
C2050       C  0.27982358  0.91579958  0.06138023    -0.02800
C2051       C  0.21186785  0.87225231  0.05704002     0.36400
C2052       C  0.30270497  0.95271113  0.04624832     0.40000
C2053       C  0.20804381  0.91058902  0.03348609     0.39200
C2054       C  0.30352563  0.91861122  0.07122711     0.36100
C2055       C  0.29513009  0.84812731  0.06708454     0.36800
C2056       C  0.21903782  0.87475777  0.11245261     0.40000
N2057       N  0.18801250  0.91025589  0.02626785    -0.38000
N2058       N  0.19419855  0.85506545  0.05900199    -0.39600
N2059       N  0.32127138  0.96879203  0.04405916    -0.37400
N2060       N  0.32240123  0.92056965  0.07911690    -0.39800
N2061       N  0.20560514  0.92987513  0.08691484    -0.39500
N2062       N  0.20274719  0.87964380  0.12131504    -0.37200
N2063       N  0.31487798  0.79812715  0.09332957    -0.38200
N2064       N  0.30990608  0.84246146  0.05770396    -0.39900
C2065       C  0.28693308  0.59868206  0.94308121    -0.04800
C2066       C  0.26018883  0.60504569  0.93692852     0.09300
C2067       C  0.23464085  0.59434745  0.94299108    -0.02200
C2068       C  0.23585490  0.57719362  0.95516871    -0.00500
C2069       C  0.26256772  0.57117720  0.96144988    -0.04100
C2070       C  0.28811527  0.58192154  0.95539762     0.02900
C2071       C  0.25883872  0.62450528  0.92450295     0.09800
C2072       C  0.20714477  0.60121628  0.93674314     0.35700
C2073       C  0.31556627  0.57522312  0.96172882     0.39100
C2074       C  0.25731787  0.61314079  0.91076403    -0.04400
C2075       C  0.25489889  0.63169416  0.89905672     0.02700
C2076       C  0.25524746  0.66216913  0.90099500    -0.04000
C2077       C  0.25811658  0.67321660  0.91505926    -0.00300
C2078       C  0.25904232  0.65440593  0.92663848    -0.02800
C2079       C  0.25819308  0.58214344  0.90876490     0.36400
C2080       C  0.26020502  0.70389685  0.91806001     0.40000
C2081       C  0.25123857  0.61883279  0.88520600     0.39200
C2082       C  0.25983899  0.66582819  0.94093052     0.36100
C2083       C  0.31315918  0.60933924  0.93666100     0.36800
C2084       C  0.20969563  0.56551245  0.96123714     0.40000
N2085       N  0.24825660  0.60812831  0.87425591    -0.38000
N2086       N  0.25906482  0.55741346  0.90727945    -0.39600
N2087       N  0.26164200  0.72822431  0.92072042    -0.37400
N2088       N  0.26030616  0.67490031  0.95230933    -0.39800
N2089       N  0.18519820  0.60672139  0.93177525    -0.39500
N2090       N  0.18893610  0.55610779  0.96614522    -0.37200
N2091       N  0.33743781  0.56974210  0.96678057    -0.38200
N2092       N  0.33401995  0.61783367  0.93147493    -0.39900
C2093       C  0.24349790  0.88801707  0.91477394    -0.04800
C2094       C  0.23641273  0.87579799  0.92791562     0.09300
C2095       C  0.22596871  0.84734529  0.92853002    -0.02200
C2096       C  0.22277087  0.83097670  0.91609061    -0.00500
C2097       C  0.23234135  0.84210809  0.90289069    -0.04100
C2098       C  0.24150974  0.87136112  0.90230797     0.02900
C2099       C  0.23935535  0.89308141  0.94117333     0.09800
C2100       C  0.21931453  0.83464463  0.94213323     0.35700
C2101       C  0.24912015  0.88472701  0.88902478     0.39100
C2102       C  0.21466292  0.90341849  0.94806900    -0.04400
C2103       C  0.21744520  0.92006840  0.96043245     0.02700
C2104       C  0.24493926  0.92763731  0.96556417    -0.04000
C2105       C  0.26958492  0.91643696  0.95898887    -0.00300
C2106       C  0.26675502  0.89867996  0.94697730    -0.02800
C2107       C  0.18642160  0.89733473  0.94228380     0.36400
C2108       C  0.29781311  0.92363594  0.96447157     0.40000
C2109       C  0.19208927  0.93047258  0.96760194     0.39200
C2110       C  0.29194350  0.88603872  0.94058942     0.36100
C2111       C  0.25343136  0.91771233  0.91413855     0.36800
C2112       C  0.20890606  0.80294456  0.91712443     0.40000
N2113       N  0.17192279  0.93883537  0.97334683    -0.38000
N2114       N  0.16391420  0.89235337  0.93767693    -0.39600
N2115       N  0.32027544  0.92937105  0.96892789    -0.37400
N2116       N  0.31195169  0.87576212  0.93550128    -0.39800
N2117       N  0.21421335  0.82474217  0.95303486    -0.39500
N2118       N  0.19763755  0.78079093  0.91836690    -0.37200
N2119       N  0.25489270  0.89583569  0.87848958    -0.38200
N2120       N  0.26150862  0.94133342  0.91362045    -0.39900
C2121       C  0.47353005  0.64269718  0.70252319    -0.04800
C2122       C  0.49748285  0.64999716  0.71108232     0.09300
C2123       C  0.97756242  0.62117697  0.71855599    -0.02200
C2124       C  0.97825418  0.59799585  0.70879266    -0.00500
C2125       C  0.49748237  0.59890402  0.69425430    -0.04100
C2126       C  0.47320885  0.61690010  0.69454602     0.02900
C2127       C  0.49663667  0.67620633  0.72065036     0.09800
C2128       C  0.95868104  0.61956830  0.73067038     0.35700
C2129       C  0.44777325  0.60878910  0.68656483     0.39100
C2130       C  0.47646613  0.67762330  0.73160726    -0.04400
C2131       C  0.47331666  0.70305327  0.73971523     0.02700
C2132       C  0.49511790  0.72544936  0.73967160    -0.04000
C2133       C  0.01720483  0.70240693  0.74437567    -0.00300
C2134       C  0.01703329  0.67740505  0.73570409    -0.02800
C2135       C  0.45811083  0.65277643  0.73437522     0.36400
C2136       C  0.03837848  0.70190200  0.75553747     0.40000
C2137       C  0.44513684  0.70645031  0.74587499     0.39200
C2138       C  0.04038210  0.65686477  0.73655753     0.36100
C2139       C  0.44937980  0.66209896  0.70162782     0.36800
C2140       C  0.95845097  0.57407062  0.71045650     0.40000
N2141       N  0.42192913  0.70840100  0.75006101    -0.38000
N2142       N  0.44351988  0.63298797  0.73655199    -0.39600
N2143       N  0.05486782  0.69959327  0.76457560    -0.37400
N2144       N  0.05899346  0.64061237  0.73722071    -0.39800
N2145       N  0.94356607  0.61807287  0.74031113    -0.39500
N2146       N  0.94246174  0.55515214  0.71194676    -0.37200
N2147       N  0.42748824  0.60213081  0.68025627    -0.38200
N2148       N  0.43008401  0.67751632  0.70088085    -0.39900
C2149       C  0.02104235  0.87922417  0.71434520    -0.04800
C2150       C  0.49469791  0.85904991  0.71416949     0.09300
C2151       C  0.47091169  0.87792176  0.71422498    -0.02200
C2152       C  0.47001000  0.90174008  0.70490369    -0.00500
C2153       C  0.49380311  0.90841398  0.69629530    -0.04100
C2154       C  0.02075603  0.90376377  0.70553691     0.02900
C2155       C  0.49527166  0.83228065  0.72333027     0.09800
C2156       C  0.44702034  0.87273319  0.72365880     0.35700
C2157       C  0.04646732  0.92123851  0.70398626     0.39100
C2158       C  0.51598950  0.82934738  0.73399558    -0.04400
C2159       C  0.51920594  0.80298793  0.74137298     0.02700
C2160       C  0.49780954  0.78026392  0.74046008    -0.04000
C2161       C  0.47706709  0.78383738  0.72921260    -0.00300
C2162       C  0.47679006  0.80884014  0.72058362    -0.02800
C2163       C  0.53485216  0.85364452  0.73718714     0.36400
C2164       C  0.00167760  0.75598465  0.71791508     0.40000
C2165       C  0.54696053  0.79936297  0.74793976     0.39200
C2166       C  0.45684616  0.81065516  0.70883188     0.36100
C2167       C  0.04741634  0.87086561  0.72126656     0.36800
C2168       C  0.44371558  0.91781811  0.70328039     0.40000
N2169       N  0.56985161  0.79738197  0.75254204    -0.38000
N2170       N  0.54991055  0.87292868  0.73974870    -0.39600
N2171       N  0.00530183  0.73649135  0.71050358    -0.37400
N2172       N  0.44086111  0.81203003  0.69952018    -0.39800
N2173       N  0.42764706  0.86905962  0.73106897    -0.39500
N2174       N  0.42247100  0.93009887  0.70172695    -0.37200
N2175       N  0.06703208  0.93515799  0.70283063    -0.38200
N2176       N  0.06845827  0.86397880  0.72672860    -0.39900
C2177       C  0.12520712  0.73838546  0.78449292    -0.04800
C2178       C  0.10623408  0.76209266  0.78505736     0.09300
C2179       C  0.11366593  0.78586424  0.79374510    -0.02200
C2180       C  0.13774842  0.78463500  0.80282148    -0.00500
C2181       C  0.15513590  0.75986452  0.80316025    -0.04100
C2182       C  0.14945173  0.73727304  0.79352826     0.02900
C2183       C  0.07817382  0.76189404  0.77685684     0.09800
C2184       C  0.09671795  0.81184838  0.79317194     0.35700
C2185       C  0.16806875  0.71243116  0.79319465     0.39100
C2186       C  0.05173836  0.75953515  0.78390358    -0.04400
C2187       C  0.02519563  0.75982031  0.77642438     0.02700
C2188       C  0.02419389  0.75863486  0.76115005    -0.04000
C2189       C  0.05188648  0.76239797  0.75435933    -0.00300
C2190       C  0.07788074  0.76498423  0.76217265    -0.02800
C2191       C  0.05188539  0.75735709  0.79920010     0.36400
C2192       C  0.05531403  0.76135570  0.73918954     0.40000
C2193       C  0.00020486  0.76416128  0.78519814     0.39200
C2194       C  0.10492648  0.77048860  0.75501523     0.36100
C2195       C  0.12015482  0.71509478  0.77456810     0.36800
C2196       C  0.14513856  0.80922661  0.81163012     0.40000
N2197       N  0.49310370  0.81265847  0.77775687    -0.38000
N2198       N  0.05193557  0.75579498  0.81137376    -0.39600
N2199       N  0.06059311  0.76056216  0.72727858    -0.37400
N2200       N  0.12653556  0.77489591  0.74940063    -0.39800
N2201       N  0.08332317  0.83267176  0.79265265    -0.33500
N2202       N  0.15134745  0.82892049  0.81854120    -0.37200
N2203       N  0.18287744  0.69258429  0.79283500    -0.38200
N2204       N  0.11708385  0.69648324  0.76654246    -0.39900
C2205       C  0.42102047  0.77097159  0.76801193    -0.04800
C2206       C  0.41861908  0.75068480  0.77885803     0.09300
C2207       C  0.44137649  0.73153972  0.78100016    -0.02200
C2208       C  0.46545385  0.73142357  0.77179854    -0.00500
C2209       C  0.46909912  0.75287195  0.76087932    -0.04100
C2210       C  0.44702760  0.77456596  0.76053930     0.02900
C2211       C  0.39319135  0.75145658  0.78876184     0.09800
C2212       C  0.43967847  0.71130912  0.79262985     0.35700
C2213       C  0.45126323  0.80321527  0.75491501     0.39100
C2214       C  0.37293310  0.72859039  0.78917890    -0.04400
C2215       C  0.34995663  0.72913699  0.79893793     0.02700
C2216       C  0.34539208  0.75367333  0.80749482    -0.04000
C2217       C  0.36525311  0.77685902  0.80681729    -0.00300
C2218       C  0.38932739  0.77544719  0.79779877    -0.02800
C2219       C  0.37553567  0.70456584  0.77947546     0.36400
C2220       C  0.36092924  0.80234531  0.81542263     0.40000
C2221       C  0.33275271  0.70338924  0.80109184     0.39200
C2222       C  0.41030462  0.79875616  0.79785068     0.36100
C2223       C  0.39667337  0.78922767  0.76486562     0.36800
C2224       C  0.48502703  0.70760911  0.77348340     0.40000
N2225       N  0.31979477  0.68241991  0.80307669    -0.38000
N2226       N  0.37742217  0.68541349  0.77169994    -0.39600
N2227       N  0.35750998  0.82271971  0.82225733    -0.37400
N2228       N  0.42704349  0.81732423  0.79775961    -0.39800
N2229       N  0.43825508  0.69514386  0.80186717    -0.39500
N2230       N  0.49913761  0.68768916  0.77554398    -0.37200
N2231       N  0.45374105  0.82676440  0.75112002    -0.38200
N2232       N  0.37724391  0.80365037  0.76233555    -0.39900
C2233       C  0.32003172  0.52959467  0.73183814    -0.04800
C2234       C  0.32455504  0.50767132  0.72194496     0.09300
C2235       C  0.30689569  0.99003979  0.72056393    -0.02200
C2236       C  0.28149462  0.98889812  0.72888443    -0.00500
C2237       C  0.27377024  0.50705255  0.73973381    -0.04100
C2238       C  0.29433666  0.53069720  0.73979301     0.02900
C2239       C  0.35050374  0.50881275  0.71242223     0.09800
C2240       C  0.31111249  0.96966613  0.70910728     0.35700
C2241       C  0.28893475  0.55855704  0.74605340     0.39100
C2242       C  0.38098746  0.00096874  0.71775952    -0.04400
C2243       C  0.40534383  0.00344149  0.70887551     0.02700
C2244       C  0.39935419  0.51151298  0.69414665    -0.04000
C2245       C  0.37183182  0.52109612  0.68960196    -0.00300
C2246       C  0.34766305  0.51892266  0.69851853    -0.02800
C2247       C  0.38321735  0.98548786  0.73093786     0.36400
C2248       C  0.36801679  0.53478023  0.67600284     0.40000
C2249       C  0.43260991  0.99242037  0.71374152     0.39200
C2250       C  0.31954662  0.52693706  0.69328734     0.36100
C2251       C  0.34187503  0.55197522  0.73352282     0.36800
C2252       C  0.26128179  0.96614228  0.72534294     0.40000
N2253       N  0.45448670  0.98397906  0.71765998    -0.38000
N2254       N  0.38557999  0.97285600  0.74135986    -0.39600
N2255       N  0.36430301  0.54599799  0.66529174    -0.37400
N2256       N  0.29713671  0.53299407  0.68902822    -0.39800
N2257       N  0.31450153  0.95366626  0.69988996    -0.39500
N2258       N  0.24634253  0.94768765  0.72148114    -0.37200
N2259       N  0.28581864  0.58163823  0.75037456    -0.38200
N2260       N  0.35927288  0.56967536  0.73501526    -0.39900
C2261       C  0.17386935  0.98177177  0.73367615    -0.04800
C2262       C  0.16762025  0.50189380  0.72281514     0.09300
C2263       C  0.19006758  0.52134792  0.72011316    -0.02200
C2264       C  0.21473914  0.52232078  0.72889055    -0.00500
C2265       C  0.21934284  0.50126830  0.73988599    -0.04100
C2266       C  0.20076687  0.97968336  0.74053714     0.02900
C2267       C  0.14113044  0.50143709  0.71369278     0.09800
C2268       C  0.18770773  0.54045155  0.70806700     0.35700
C2269       C  0.20765621  0.95104272  0.74538378     0.39100
C2270       C  0.11943731  0.52236859  0.71520923    -0.04400
C2271       C  0.09475428  0.52142673  0.70648578     0.02700
C2272       C  0.09161709  0.49964424  0.69614027    -0.04000
C2273       C  0.11847106  0.98553343  0.69383681    -0.00300
C2274       C  0.14299541  0.98808076  0.70242756    -0.02800
C2275       C  0.12274591  0.54551051  0.72538634     0.36400
C2276       C  0.11909668  0.96541073  0.68211455     0.40000
C2277       C  0.07335670  0.54378922  0.70766516     0.39200
C2278       C  0.16970585  0.97497155  0.69803038     0.36100
C2279       C  0.15224738  0.95925786  0.73541814     0.36800
C2280       C  0.23355359  0.54691939  0.72679444     0.40000
N2281       N  0.05634963  0.56167879  0.70861232    -0.38000
N2282       N  0.12481851  0.56448281  0.73328018    -0.39600
N2283       N  0.11987857  0.94871728  0.67304548    -0.37400
N2284       N  0.19113342  0.96482993  0.69453415    -0.39800
N2285       N  0.18588502  0.55532898  0.69835153    -0.39500
N2286       N  0.24675154  0.56749869  0.72428767    -0.37200
N2287       N  0.21252915  0.92758427  0.74859501    -0.38200
N2288       N  0.13506430  0.94132427  0.73675037    -0.39900
C2289       C  0.22207863  0.57842602  0.76767860    -0.04800
C2290       C  0.24383423  0.58368225  0.77755292     0.09300
C2291       C  0.26436921  0.56235206  0.77993558    -0.02200
C2292       C  0.26503366  0.53703133  0.77148421    -0.00500
C2293       C  0.24387231  0.53156472  0.76061246    -0.04100
C2294       C  0.22046785  0.55187984  0.76030648     0.02900
C2295       C  0.24279182  0.61014182  0.78674758     0.09800
C2296       C  0.28566395  0.56710396  0.79092331     0.35700
C2297       C  0.19225436  0.54496138  0.75481836     0.39100
C2298       C  0.22839825  0.60876322  0.79976446    -0.04400
C2299       C  0.22625257  0.63351526  0.80831420     0.02700
C2300       C  0.24118577  0.65926991  0.80477168    -0.04000
C2301       C  0.25337189  0.66137713  0.79113449    -0.00300
C2302       C  0.25406873  0.63689531  0.78216372    -0.02800
C2303       C  0.21556725  0.58175527  0.80434445     0.36400
C2304       C  0.26431247  0.68873977  0.78603172     0.40000
C2305       C  0.20583219  0.63326423  0.81981741     0.39200
C2306       C  0.26620259  0.63944911  0.76817624     0.36100
C2307       C  0.20012176  0.60011283  0.76568498     0.36800
C2308       C  0.28939857  0.51844009  0.77366238     0.40000
N2309       N  0.18851816  0.63283088  0.82853316    -0.38000
N2310       N  0.20559446  0.56014384  0.80803419    -0.39600
N2311       N  0.27276961  0.71059342  0.78182468    -0.37400
N2312       N  0.27575020  0.64224857  0.75700923    -0.39800
N2313       N  0.30255864  0.57087664  0.79970222    -0.39500
N2314       N  0.30972528  0.50530042  0.77616952    -0.37200
N2315       N  0.16899903  0.54007246  0.75122073    -0.38200
N2316       N  0.18273742  0.61742530  0.76408354    -0.39900
C2317       C  0.27121893  0.93082784  0.76847424    -0.04800
C2318       C  0.24930544  0.92652506  0.77836278     0.09300
C2319       C  0.22907759  0.94832184  0.78028916    -0.02200
C2320       C  0.22931570  0.97340764  0.77169978    -0.00500
C2321       C  0.25086330  0.97814773  0.76091327    -0.04100
C2322       C  0.27334141  0.95679899  0.76061104     0.02900
C2323       C  0.24956138  0.90037482  0.78786665     0.09800
C2324       C  0.20754613  0.94465436  0.79122413     0.35700
C2325       C  0.30093833  0.96151947  0.75405932     0.39100
C2326       C  0.26862258  0.89959213  0.79943692    -0.04400
C2327       C  0.26927612  0.87536724  0.80842605     0.02700
C2328       C  0.25026611  0.85174940  0.80625349    -0.04000
C2329       C  0.23204091  0.85199663  0.79431372    -0.00300
C2330       C  0.23166023  0.87616241  0.78520093    -0.02800
C2331       C  0.28772610  0.92388956  0.80206884     0.36400
C2332       C  0.21344094  0.82750394  0.79137426     0.40000
C2333       C  0.29071209  0.87425936  0.81949167     0.39200
C2334       C  0.21281468  0.87583539  0.77305336     0.36100
C2335       C  0.29255989  0.90841206  0.76680876     0.36800
C2336       C  0.20585684  0.99308405  0.77402028     0.40000
N2337       N  0.30827809  0.87358562  0.82810584    -0.38000
N2338       N  0.30297355  0.94328940  0.80408572    -0.39600
N2339       N  0.19877878  0.80794080  0.78879092    -0.37400
N2340       N  0.19751346  0.87471954  0.76345057    -0.39800
N2341       N  0.19044826  0.94176557  0.79994922    -0.39500
N2342       N  0.18636460  0.00724051  0.77680584    -0.37200
N2343       N  0.32381765  0.96399924  0.74949449    -0.38200
N2344       N  0.30947036  0.89049869  0.76558134    -0.39900
C2345       C  0.10951827  0.75731263  0.08882301    -0.04800
C2346       C  0.12114838  0.76543924  0.07567916     0.09300
C2347       C  0.14945816  0.77606681  0.07502254    -0.02200
C2348       C  0.16632599  0.77808642  0.08733568    -0.00500
C2349       C  0.15557614  0.76809676  0.10050776    -0.04100
C2350       C  0.12645373  0.75887454  0.10120158     0.02900
C2351       C  0.10373594  0.76273546  0.06242337     0.09800
C2352       C  0.16160953  0.78402713  0.06147398     0.35700
C2353       C  0.11363279  0.75046286  0.11449883     0.39100
C2354       C  0.09340164  0.78763799  0.05563686    -0.04400
C2355       C  0.07729981  0.78507221  0.04310426     0.02700
C2356       C  0.07061956  0.75758022  0.03752882    -0.04000
C2357       C  0.08122345  0.73271879  0.04417038    -0.00300
C2358       C  0.09821332  0.73531429  0.05643162    -0.02800
C2359       C  0.09879474  0.81588296  0.06172639     0.36400
C2360       C  0.07368135  0.70448624  0.03863416     0.40000
C2361       C  0.06636007  0.81062842  0.03625645     0.39200
C2362       C  0.10992640  0.70979586  0.06296241     0.36100
C2363       C  0.08028370  0.74639294  0.08952585     0.36800
C2364       C  0.19461406  0.79111273  0.08622301     0.40000
N2365       N  0.05752127  0.83093446  0.03077563    -0.38000
N2366       N  0.10313691  0.83844474  0.06654674    -0.39600
N2367       N  0.06743030  0.68205114  0.03417500    -0.37400
N2368       N  0.11934852  0.68953165  0.06823579    -0.39800
N2369       N  0.17117506  0.79025991  0.05064351    -0.39500
N2370       N  0.21703595  0.80161809  0.08492382    -0.37200
N2371       N  0.10295593  0.74403529  0.12504942    -0.38200
N2372       N  0.05710513  0.73733614  0.09008972    -0.39900
C2373       C  0.34307459  0.72694841  0.07661144    -0.04800
C2374       C  0.37282270  0.72771539  0.07898214     0.09300
C2375       C  0.38350593  0.72958865  0.09284197    -0.02200
C2376       C  0.36448570  0.73217751  0.10433837    -0.00500
C2377       C  0.33426744  0.73248165  0.10204603    -0.04100
C2378       C  0.32387759  0.72818426  0.08802125     0.02900
C2379       C  0.39269003  0.72638386  0.06668066     0.09800
C2380       C  0.41424143  0.72908211  0.09525152     0.35700
C2381       C  0.29354298  0.72421330  0.08500493     0.39100
C2382       C  0.40625000  0.75170588  0.06175029    -0.04400
C2383       C  0.42302015  0.75082778  0.04942850     0.02700
C2384       C  0.42533568  0.72491448  0.04169095    -0.04000
C2385       C  0.41227821  0.69948244  0.04678117    -0.00300
C2386       C  0.39639900  0.70011869  0.05939143    -0.02800
C2387       C  0.40299341  0.77860194  0.06938881     0.36400
C2388       C  0.41616429  0.67249899  0.03931344     0.40000
C2389       C  0.43878041  0.77627641  0.04493839     0.39200
C2390       C  0.38439813  0.67368053  0.06508848     0.36100
C2391       C  0.33220656  0.72550015  0.06225343     0.36800
C2392       C  0.37658566  0.73449633  0.11840786     0.40000
N2393       N  0.45173132  0.79636836  0.04140269    -0.38000
N2394       N  0.40047911  0.80002276  0.07552265    -0.39600
N2395       N  0.41939781  0.65093648  0.03339487    -0.37400
N2396       N  0.37504716  0.65256986  0.06972098    -0.39800
N2397       N  0.43872264  0.72872181  0.09724754    -0.39500
N2398       N  0.38644565  0.73605896  0.12959460    -0.37200
N2399       N  0.26952610  0.72098159  0.08227599    -0.38200
N2400       N  0.32369001  0.72442716  0.05079589    -0.39900
C2401       C  0.13901590  0.72332315  0.92236730    -0.04800
C2402       C  0.11798517  0.74467541  0.92420967     0.09300
C2403       C  0.11322715  0.76485119  0.91334515    -0.02200
C2404       C  0.13080290  0.76503360  0.90124698    -0.00500
C2405       C  0.15165917  0.74351847  0.89934829    -0.04100
C2406       C  0.15497464  0.72209229  0.90977346     0.02900
C2407       C  0.10152978  0.74656223  0.93777501     0.09800
C2408       C  0.09067272  0.78595290  0.91477466     0.35700
C2409       C  0.17484912  0.69867545  0.90758677     0.39100
C2410       C  0.10660758  0.76969770  0.94722694    -0.04400
C2411       C  0.09024594  0.77225141  0.95969612     0.02700
C2412       C  0.06887683  0.75149015  0.96290041    -0.04000
C2413       C  0.06473288  0.72769259  0.95371167    -0.00300
C2414       C  0.08084615  0.72531971  0.94119513    -0.02800
C2415       C  0.12859153  0.79101864  0.94401454     0.36400
C2416       C  0.04328792  0.70589553  0.95701874     0.40000
C2417       C  0.09507653  0.79652282  0.96908058     0.39200
C2418       C  0.07584607  0.70117809  0.93171402     0.36100
C2419       C  0.14505329  0.70328056  0.93366685     0.36800
C2420       C  0.12908532  0.78891670  0.89148680     0.40000
N2421       N  0.09919762  0.81577063  0.97662513    -0.38000
N2422       N  0.14604545  0.80800713  0.94131912    -0.39600
N2423       N  0.02603416  0.68867342  0.95966388    -0.37400
N2424       N  0.07210182  0.68179703  0.92420313    -0.39800
N2425       N  0.07269270  0.80281922  0.91585814    -0.39500
N2426       N  0.12779182  0.80848460  0.88400336    -0.37200
N2427       N  0.19028561  0.67962347  0.90590884    -0.38200
N2428       N  0.14995752  0.68737184  0.94269937    -0.39900
C2429       C  0.34107943  0.76727331  0.92874327    -0.04800
C2430       C  0.36244505  0.74614821  0.92980055     0.09300
C2431       C  0.36822290  0.72833823  0.91806041    -0.02200
C2432       C  0.35230703  0.73121838  0.90543187    -0.00500
C2433       C  0.33127791  0.75285880  0.90420558    -0.04100
C2434       C  0.32595008  0.77096167  0.91598663     0.02900
C2435       C  0.37961637  0.74332653  0.94313418     0.09800
C2436       C  0.39057779  0.70692966  0.91905210     0.35700
C2437       C  0.30507091  0.79379090  0.91506075     0.39100
C2438       C  0.37386810  0.72080795  0.95273666    -0.04400
C2439       C  0.39162255  0.71695684  0.96468683     0.02700
C2440       C  0.41507290  0.73587739  0.96718921    -0.04000
C2441       C  0.41942497  0.75961637  0.95806642    -0.00300
C2442       C  0.40195933  0.76314886  0.94606217    -0.02800
C2443       C  0.34966432  0.70160791  0.95025113     0.36400
C2444       C  0.44221952  0.78033422  0.96094487     0.40000
C2445       C  0.38599005  0.69329123  0.97424763     0.39200
C2446       C  0.40717913  0.78705592  0.93656864     0.36100
C2447       C  0.33449265  0.78512077  0.94088850     0.36800
C2448       C  0.35631103  0.71056143  0.89413412     0.40000
N2449       N  0.38123386  0.67460727  0.98196907    -0.38000
N2450       N  0.33026412  0.68640328  0.94824586    -0.39600
N2451       N  0.46042993  0.79683366  0.96320159    -0.37400
N2452       N  0.41113463  0.80618380  0.92900609    -0.39800
N2453       N  0.40849920  0.68995602  0.91992676    -0.39500
N2454       N  0.35945377  0.69361189  0.88531221    -0.37200
N2455       N  0.28861568  0.81222708  0.91456392    -0.38200
N2456       N  0.32918245  0.79933501  0.95056877    -0.39900
C2457       C  0.38056535  0.01703520  0.28308921    -0.04800
C2458       C  0.35460423  0.49840075  0.28743228     0.09300
C2459       C  0.35543023  0.47811453  0.29848823    -0.02200
C2460       C  0.38041699  0.47508183  0.30672402    -0.00500
C2461       C  0.40416320  0.49391110  0.30488656    -0.04100
C2462       C  0.40404935  0.01561152  0.29256734     0.02900
C2463       C  0.32870168  0.49989889  0.27790839     0.09800
C2464       C  0.33069122  0.45989911  0.30135235     0.35700
C2465       C  0.42926184  0.03323359  0.28996625     0.39100
C2466       C  0.32436560  0.97939037  0.26591418    -0.04400
C2467       C  0.29992038  0.98009653  0.25702898     0.02700
C2468       C  0.27752365  0.50044409  0.26043366    -0.04000
C2469       C  0.28523715  0.52425364  0.26959641    -0.00300
C2470       C  0.31024736  0.52362402  0.27821074    -0.02800
C2471       C  0.34437454  0.95556928  0.26496346     0.36400
C2472       C  0.26683701  0.54893826  0.27147669     0.40000
C2473       C  0.30061894  0.95945877  0.24552166     0.39200
C2474       C  0.31599051  0.54667197  0.28826362     0.36100
C2475       C  0.38207173  0.03581088  0.27091354     0.36800
C2476       C  0.38241397  0.45110329  0.31644316     0.40000
N2477       N  0.30305640  0.94315278  0.23635247    -0.38000
N2478       N  0.36014435  0.93653447  0.26419481    -0.39600
N2479       N  0.25369575  0.56942306  0.27380495    -0.37400
N2480       N  0.32039208  0.56495350  0.29633080    -0.39800
N2481       N  0.31128677  0.44503309  0.30380432    -0.39500
N2482       N  0.38417179  0.43157410  0.32392794    -0.37200
N2483       N  0.44934142  0.04712364  0.28749306    -0.38200
N2484       N  0.38316815  0.05075375  0.26118641    -0.39900
C2485       C  0.19626176  0.00058619  0.28381024    -0.04800
C2486       C  0.16815927  0.49478991  0.27926950     0.09300
C2487       C  0.16636799  0.49346141  0.26453094    -0.02200
C2488       C  0.19147213  0.49423691  0.25609004    -0.00500
C2489       C  0.21983810  0.49700114  0.26224181    -0.04100
C2490       C  0.22172842  0.00005483  0.27566699     0.02900
C2491       C  0.14140110  0.49563693  0.28817667     0.09800
C2492       C  0.13815759  0.49277712  0.25798325     0.35700
C2493       C  0.24752603  0.99551762  0.28383264     0.39100
C2494       C  0.13389060  0.52119673  0.29538616    -0.04400
C2495       C  0.10945016  0.52179031  0.30411837     0.02700
C2496       C  0.09219504  0.49688273  0.30580395    -0.04000
C2497       C  0.10347029  0.97691548  0.29860175    -0.00300
C2498       C  0.12664415  0.97618774  0.28908238    -0.02800
C2499       C  0.15192307  0.54672010  0.29438205     0.36400
C2500       C  0.09019115  0.95023064  0.30327974     0.40000
C2501       C  0.10263552  0.54789554  0.31185651     0.39200
C2502       C  0.13461809  0.94912901  0.28256559     0.36100
C2503       C  0.19768313  0.00017193  0.29915530     0.36800
C2504       C  0.18680371  0.49511059  0.24096824     0.40000
N2505       N  0.09723590  0.56864409  0.31806875    -0.38000
N2506       N  0.16617356  0.56724460  0.29400481    -0.39600
N2507       N  0.07993669  0.92899416  0.30728817    -0.37400
N2508       N  0.14071967  0.92755707  0.27726360    -0.39800
N2509       N  0.11564409  0.49223509  0.25283433    -0.39500
N2510       N  0.18111964  0.49619428  0.22910431    -0.37200
N2511       N  0.26681337  0.99121877  0.29119996    -0.38200
N2512       N  0.19880006  0.99965981  0.31134040    -0.39900
C2513       C  0.22445269  0.60423810  0.20331689    -0.04800
C2514       C  0.24179656  0.60585851  0.21549591     0.09300
C2515       C  0.25527856  0.63231556  0.21896410    -0.02200
C2516       C  0.25257695  0.65656249  0.21001408    -0.00500
C2517       C  0.23695744  0.65437004  0.19714105    -0.04100
C2518       C  0.22185261  0.62824301  0.19429742     0.02900
C2519       C  0.24407701  0.58035207  0.22527060     0.09800
C2520       C  0.27176655  0.63452418  0.23192020     0.35700
C2521       C  0.20205146  0.62625725  0.18251402     0.39100
C2522       C  0.26917733  0.56394136  0.22595426    -0.04400
C2523       C  0.27057318  0.53895604  0.23459133     0.02700
C2524       C  0.24684033  0.53019610  0.24347386    -0.04000
C2525       C  0.22407015  0.55119616  0.24438834    -0.00300
C2526       C  0.22155319  0.57372426  0.23445937    -0.02800
C2527       C  0.29338962  0.57222485  0.21718011     0.36400
C2528       C  0.20504380  0.55391273  0.25634866     0.40000
C2529       C  0.29632875  0.52201015  0.23316309     0.39200
C2530       C  0.19581838  0.59121259  0.23408941     0.36100
C2531       C  0.20860110  0.57795957  0.20013715     0.36800
C2532       C  0.26565655  0.68362955  0.21436330     0.40000
N2533       N  0.31768895  0.51016256  0.23121793    -0.38000
N2534       N  0.31274522  0.57893733  0.21026999    -0.39600
N2535       N  0.18963692  0.55774036  0.26569843    -0.37400
N2536       N  0.17524095  0.60492687  0.23370699    -0.39800
N2537       N  0.28491896  0.63592808  0.24226038    -0.39500
N2538       N  0.27595064  0.70509825  0.21814370    -0.37200
N2539       N  0.18593733  0.62435852  0.17326548    -0.38200
N2540       N  0.19543329  0.55739776  0.19746377    -0.39900
C2541       C  0.24633699  0.94711316  0.21783120    -0.04800
C2542       C  0.24079167  0.92093409  0.22468858     0.09300
C2543       C  0.23533388  0.92115743  0.23916531    -0.02200
C2544       C  0.23959414  0.94659880  0.24716526    -0.00500
C2545       C  0.24454132  0.97431343  0.24051611    -0.04100
C2546       C  0.24499857  0.97359427  0.22525589     0.02900
C2547       C  0.23985329  0.89321351  0.21646898     0.09800
C2548       C  0.22577503  0.89466479  0.24590134     0.35700
C2549       C  0.24128313  0.99845027  0.21633687     0.39100
C2550       C  0.26101084  0.87194223  0.21844993    -0.04400
C2551       C  0.26142321  0.84724376  0.20971367     0.02700
C2552       C  0.24150638  0.84430359  0.19857258    -0.04000
C2553       C  0.21907424  0.86444913  0.19732671    -0.00300
C2554       C  0.21798157  0.88849677  0.20640588    -0.02800
C2555       C  0.28261040  0.87547713  0.22935648     0.36400
C2556       C  0.19668667  0.86013269  0.18686822     0.40000
C2557       C  0.28250345  0.82510419  0.21219324     0.39200
C2558       C  0.19438744  0.90856431  0.20541405     0.36100
C2559       C  0.25310820  0.94676103  0.20285157     0.36800
C2560       C  0.24092447  0.94241949  0.26228102     0.40000
N2561       N  0.29911917  0.80743208  0.21458241    -0.38000
N2562       N  0.29977324  0.87777983  0.23812464    -0.39600
N2563       N  0.17868929  0.85672597  0.17859954    -0.37400
N2564       N  0.17568427  0.92470641  0.20472615    -0.39800
N2565       N  0.21803360  0.87351338  0.25114486    -0.39500
N2566       N  0.24190756  0.93655956  0.27411738    -0.37200
N2567       N  0.23785298  0.01684302  0.20832974    -0.38200
N2568       N  0.25853343  0.94642660  0.19095035    -0.39900
C2569       C  0.74690467  0.49947130  0.25124267    -0.01800
N2570       N  0.99778571  0.24064473  0.98131245    -0.36000
N2571       N  0.95352699  0.23596974  0.00295791    -0.56500
N2572       N  0.99804427  0.23604938  0.02385976    -0.35900
N2573       N  0.54296897  0.27370418  0.00238399    -0.56500
C2574       C  0.97409328  0.23633874  0.97335834     0.27600
C2575       C  0.52203367  0.27924272  0.97350892     0.27600
C2576       C  0.97538438  0.22810836  0.03190292     0.27600
C2577       C  0.52155310  0.28004762  0.03145087     0.27600
C2578       C  0.93665777  0.24217523  0.99185316     0.36300
C2579       C  0.93676255  0.23751149  0.01451886     0.36300
C2580       C  0.55896485  0.26663998  0.99106740     0.36300
C2581       C  0.55916817  0.26857285  0.01387205     0.36300
C2582       C  0.98196217  0.22860157  0.95977908    -0.21200
C2583       C  0.51415258  0.29090393  0.96066145    -0.21200
C2584       C  0.98507374  0.21838512  0.04486162    -0.21200
C2585       C  0.51269687  0.29029928  0.04449184    -0.21200
C2586       C  0.90884974  0.24719196  0.99632492    -0.22300
C2587       C  0.90887637  0.24402831  0.01072651    -0.22300
C2588       C  0.58574056  0.25737193  0.99534168    -0.22300
C2589       C  0.58596122  0.25884804  0.00985932    -0.22300
C2590       C  0.94558689  0.24121657  0.97767084    -0.17600
C2591       C  0.55000796  0.27048100  0.97699850    -0.17600
C2592       C  0.55026289  0.27404420  0.02782316    -0.17600
C2593       C  0.94620723  0.23181186  0.02834613    -0.17600
H2594       H  0.96798623  0.22422407  0.95088905     0.15300
H2595       H  0.52808378  0.29666127  0.95197857     0.15300
H2596       H  0.97236440  0.21127693  0.05374808     0.15300
H2597       H  0.52598672  0.29675059  0.05333377     0.15300
H2598       H  0.89039207  0.25208835  0.98986320     0.13600
H2599       H  0.89050203  0.24617998  0.01759362     0.13600
H2600       H  0.60336801  0.25077645  0.98870156     0.13600
H2601       H  0.60374303  0.25343144  0.01666472     0.13600
H2602       H  0.99817892  0.25016964  0.99121734     0.26800
H2603       H  0.99729838  0.24794125  0.01463297     0.26800
C2604       C  0.74612964  0.49606421  0.75113957    -0.01800
C2605       C  0.49863141  0.25335681  0.75207322    -0.01800
N2606       N  0.74703547  0.49475762  0.98085761    -0.36000
N2607       N  0.72875308  0.04090165  0.00229582    -0.56500
N2608       N  0.75306858  0.49853586  0.02334211    -0.35900
N2609       N  0.75711207  0.45280015  0.00301549    -0.56500
C2610       C  0.72396880  0.01806807  0.97344191     0.27600
C2611       C  0.74343457  0.46970611  0.97374388     0.27600
C2612       C  0.73072696  0.02006896  0.03185768     0.27600
C2613       C  0.75163621  0.47517606  0.03182090     0.27600
C2614       C  0.73156327  0.05755746  0.99071308     0.36300
C2615       C  0.73311539  0.05834138  0.01353739     0.36300
C2616       C  0.76359816  0.43652741  0.99167853     0.36300
C2617       C  0.76680439  0.43857586  0.01443872     0.36300
C2618       C  0.71332851  0.00775596  0.96072156    -0.21200
C2619       C  0.72987354  0.47501697  0.96098513    -0.21200
C2620       C  0.72449806  0.01053447  0.04538081    -0.21200
C2621       C  0.74079797  0.48301722  0.04486129    -0.21200
C2622       C  0.73706970  0.08585682  0.99459998    -0.22300
C2623       C  0.73774630  0.08641430  0.00909993    -0.22300
C2624       C  0.77748738  0.41171782  0.99589812    -0.22300
C2625       C  0.77945983  0.41299732  0.01037780    -0.22300
C2626       C  0.72813216  0.04751036  0.97673593    -0.17600
C2627       C  0.75489673  0.44280437  0.97776745    -0.17600
C2628       C  0.76189224  0.44745258  0.02846764    -0.17600
C2629       C  0.73181315  0.04933300  0.02773829    -0.17600
H2630       H  0.70506130  0.02026678  0.95203598     0.15300
H2631       H  0.72456103  0.45954864  0.95280015     0.15300
H2632       H  0.71857584  0.02332810  0.05445333     0.15300
H2633       H  0.73747194  0.46938211  0.05395689     0.15300
H2634       H  0.74005293  0.10418896  0.98772544     0.13600
H2635       H  0.74144982  0.10527354  0.01561346     0.13600
H2636       H  0.78484369  0.39427169  0.98926888     0.13600
H2637       H  0.78861738  0.39677622  0.01715184     0.13600
H2638       H  0.75996521  0.49772901  0.98968632     0.26800
H2639       H  0.76352149  0.49983835  0.01369227     0.26800
O2640       O  0.82516726  0.25061238  0.88003015    -0.74600
O2641       O  0.78758550  0.24709005  0.89502215    -0.53500
C2642       C  0.81448910  0.24952498  0.89259796     0.79100
O2643       O  0.75383589  0.32857822  0.83043887    -0.59200
O2644       O  0.75401273  0.29311333  0.81377410    -0.52300
C2645       C  0.75543367  0.31985138  0.81749562     0.71100
O2646       O  0.74937183  0.32789109  0.87850345    -0.73800
O2647       O  0.74695532  0.29080916  0.89426935    -0.54400
C2648       C  0.74900607  0.31756144  0.89112425     0.77100
O2649       O  0.82967321  0.24901904  0.83233223    -0.58900
O2650       O  0.79566698  0.24605049  0.81494136    -0.52100
C2651       C  0.82192450  0.24768407  0.81932396     0.73700
Zr2652     Zr  0.80734748  0.24746920  0.85549282     2.54700
O2653       O  0.84555859  0.28349414  0.85652592    -0.79500
O2654       O  0.84070529  0.20744404  0.85543425    -0.92900
Zr2655     Zr  0.74781272  0.30839970  0.85430478     2.64700
O2656       O  0.78271182  0.34709567  0.85733558    -0.97900
O2657       O  0.70826104  0.34204343  0.85254629    -0.79900
O2658       O  0.77670912  0.27803314  0.86835944    -0.83300
O2659       O  0.77889601  0.27815869  0.84123657    -2.18000
O2660       O  0.74334074  0.16722463  0.83028977    -0.66700
O2661       O  0.74523680  0.20257238  0.81367352    -0.51200
C2662       C  0.74322467  0.17590808  0.81741200     0.72100
O2663       O  0.66482696  0.24792848  0.87732128    -0.59600
O2664       O  0.70055794  0.24748617  0.89373104    -0.51600
C2665       C  0.67397091  0.24771105  0.89020460     0.73900
O2666       O  0.66769811  0.25014014  0.82975922    -0.71000
O2667       O  0.70358846  0.25184310  0.81335773    -0.49700
C2668       C  0.67684792  0.25155939  0.81700272     0.75300
O2669       O  0.74429315  0.16584643  0.87757092    -0.66300
O2670       O  0.74458714  0.20208240  0.89385082    -0.53500
C2671       C  0.74425663  0.17525733  0.89036935     0.73700
Zr2672     Zr  0.74671839  0.18736815  0.85400944     2.77500
O2673       O  0.71449506  0.14616209  0.85590918    -0.97100
O2674       O  0.78884682  0.15687941  0.85324825    -0.77900
Zr2675     Zr  0.68673176  0.24837466  0.85358927     2.70100
O2676       O  0.65039641  0.21047136  0.85222213    -0.79100
O2677       O  0.65233682  0.28749665  0.85333257    -0.98200
Zr2678     Zr  0.74503107  0.24695854  0.88085532     2.21500
Zr2679     Zr  0.74875835  0.24803042  0.82677008     2.11100
O2680       O  0.71703649  0.21777466  0.84017244    -2.46900
O2681       O  0.71484446  0.21654733  0.86719823    -0.78900
O2682       O  0.77816434  0.21738856  0.84081265    -0.71100
O2683       O  0.71600354  0.27889747  0.86758649    -2.32100
O2684       O  0.77672195  0.21642584  0.86840135    -2.28300
O2685       O  0.71784401  0.27854751  0.84010285    -0.72900
H2686       H  0.79155223  0.28986738  0.83554754     0.79100
H2687       H  0.70428983  0.29069559  0.87364151     0.80200
H2688       H  0.70502221  0.20622136  0.83402216     0.82400
H2689       H  0.78783343  0.20465849  0.87471763     0.80000
H2690       H  0.70172739  0.34484121  0.86237695     0.43100
H2691       H  0.65898678  0.30038153  0.84568373     0.42000
H2692       H  0.63192191  0.22078032  0.85253963     0.41700
H2693       H  0.69631600  0.15278048  0.85168709     0.39700
H2694       H  0.78178141  0.13773111  0.85631798     0.42800
H2695       H  0.83920049  0.19899581  0.86497365     0.37600
H2696       H  0.83591137  0.30190538  0.85446325     0.43700
H2697       H  0.79924372  0.34112531  0.85153514     0.40100
H2698       H  0.72208152  0.13156903  0.84930122     0.45000
H2699       H  0.85991377  0.21669468  0.85522033     0.43700
H2700       H  0.77429532  0.36369648  0.85235200     0.43900
H2701       H  0.63438790  0.27868063  0.84966866     0.44200
O2702       O  0.82858732  0.23850736  0.17304154    -0.74600
O2703       O  0.79434666  0.24322133  0.19014037    -0.53500
C2704       C  0.82044698  0.24030030  0.18592627     0.79100
O2705       O  0.76076237  0.33110100  0.12818220    -0.59200
O2706       O  0.75647240  0.29549163  0.11162671    -0.52300
C2707       C  0.76036401  0.32187663  0.11531853     0.71100
O2708       O  0.75539291  0.32789487  0.17586565    -0.73800
O2709       O  0.75076770  0.29178651  0.19205573    -0.54400
C2710       C  0.75232133  0.31855497  0.18856374     0.77100
O2711       O  0.82437355  0.23179571  0.12571255    -0.58900
O2712       O  0.78975126  0.24482489  0.11030658    -0.52100
C2713       C  0.81506867  0.23601739  0.11307222     0.73700
Zr2714     Zr  0.80687888  0.23925433  0.14989911     2.54700
O2715       O  0.84881649  0.27057555  0.14788972    -0.79500
O2716       O  0.83473862  0.19531244  0.15147814    -0.92900
Zr2717     Zr  0.75835700  0.30913561  0.15176932     2.64700
O2718       O  0.80449517  0.33396548  0.15335584    -0.97900
O2719       O  0.73230756  0.35428130  0.15248349    -0.79900
O2720       O  0.78344615  0.27353776  0.16465182    -0.83300
O2721       O  0.78313406  0.27578020  0.13735936    -2.18000
O2722       O  0.73500755  0.17093069  0.12563093    -0.66700
O2723       O  0.74052144  0.20812395  0.11021342    -0.51200
C2724       C  0.73653832  0.18135108  0.11304724     0.72100
O2725       O  0.66832677  0.25533426  0.17454313    -0.59600
O2726       O  0.70340832  0.24961974  0.19112538    -0.51600
C2727       C  0.67696190  0.25198967  0.18734691     0.73900
O2728       O  0.66910256  0.26786626  0.12694808    -0.71000
O2729       O  0.70425645  0.25962915  0.11093051    -0.49700
C2730       C  0.67839654  0.26608090  0.11414341     0.75300
O2731       O  0.73914803  0.16822711  0.17340399    -0.66300
O2732       O  0.74380820  0.20214861  0.19063085    -0.53500
C2733       C  0.74112844  0.17579593  0.18646509     0.73700
Zr2734     Zr  0.73705025  0.18965320  0.14988134     2.77500
O2735       O  0.69064215  0.16521424  0.15047900    -0.97100
O2736       O  0.76261309  0.14422789  0.14942866    -0.77900
Zr2737     Zr  0.68830678  0.25907703  0.15081115     2.70100
O2738       O  0.64746876  0.22651350  0.14819130    -0.79100
O2739       O  0.65893271  0.30162609  0.15403251    -0.98200
Zr2740     Zr  0.74833601  0.24766702  0.17801166     2.21500
Zr2741     Zr  0.74730186  0.25123804  0.12412416     2.11100
O2742       O  0.71197425  0.22473654  0.13670177    -2.46900
O2743       O  0.71271760  0.22349116  0.16414534    -0.78900
O2744       O  0.77202903  0.21448264  0.13631614    -0.71100
O2745       O  0.72311056  0.28324282  0.16483383    -2.32100
O2746       O  0.77280333  0.21352162  0.16357783    -2.28300
O2747       O  0.72260088  0.28599668  0.13778216    -0.72900
H2748       H  0.79663753  0.28559206  0.13129271     0.79100
H2749       H  0.71279359  0.29598428  0.17101023     0.80200
H2750       H  0.69846451  0.21563860  0.13031927     0.82400
H2751       H  0.78304751  0.19986711  0.16928850     0.80000
H2752       H  0.71203300  0.34857121  0.15094379     0.43100
H2753       H  0.66676758  0.31576681  0.14722826     0.42000
H2754       H  0.63153441  0.23649253  0.15298888     0.41700
H2755       H  0.68074384  0.17370622  0.15870885     0.39700
H2756       H  0.74758379  0.12936684  0.15098889     0.42800
H2757       H  0.85426264  0.20105426  0.14843336     0.37600
H2758       H  0.84630183  0.28521864  0.15539009     0.43700
H2759       H  0.81460708  0.32881393  0.14454306     0.40100
H2760       H  0.68004457  0.17258777  0.14221966     0.45000
H2761       H  0.82733638  0.18295318  0.14373158     0.43700
H2762       H  0.79982234  0.35458509  0.15222266     0.43900
H2763       H  0.63996301  0.29608256  0.15012309     0.44200
O2764       O  0.99636679  0.42209683  0.67240803    -0.74600
O2765       O  0.99402992  0.45698337  0.68941437    -0.53500
C2766       C  0.99546899  0.43037730  0.68534504     0.79100
O2767       O  0.57878510  0.99684523  0.62413152    -0.59200
O2768       O  0.54209848  0.99507417  0.60843018    -0.52300
C2769       C  0.56894340  0.99574336  0.61137190     0.71100
O2770       O  0.57867300  0.99298927  0.67185453    -0.73800
O2771       O  0.54430781  0.99729376  0.68873500    -0.54400
C2772       C  0.57062576  0.99400699  0.68480943     0.77100
O2773       O  0.99203539  0.42282910  0.62524365    -0.58900
O2774       O  0.99286035  0.45948208  0.60926336    -0.52100
C2775       C  0.99163572  0.43273380  0.61259393     0.73700
Zr2776     Zr  0.99370633  0.44315664  0.64902327     2.54700
O2777       O  0.53108475  0.40242612  0.64971580    -0.79500
O2778       O  0.95153495  0.41190638  0.65037692    -0.92900
Zr2779     Zr  0.55847084  0.99420135  0.64825745     2.64700
O2780       O  0.58759062  0.45365942  0.64620034    -0.97900
O2781       O  0.60381248  0.02042796  0.64988986    -0.79900
O2782       O  0.52565717  0.46904308  0.66272590    -0.83300
O2783       O  0.52704594  0.46609724  0.63546817    -2.18000
O2784       O  0.92135837  0.99641857  0.62360801    -0.66700
O2785       O  0.95854008  0.00087216  0.60850843    -0.51200
C2786       C  0.93192642  0.99724752  0.61098163     0.72100
O2787       O  0.99671031  0.08614052  0.67162143    -0.59600
O2788       O  0.99828333  0.05192863  0.68887000    -0.51600
C2789       C  0.99719012  0.07831612  0.68456515     0.73900
O2790       O  0.00025875  0.08327261  0.62492677    -0.71000
O2791       O  0.99864116  0.04565901  0.60942079    -0.49700
C2792       C  0.99927268  0.07266406  0.61239146     0.75300
O2793       O  0.91733798  0.00369485  0.67163143    -0.66300
O2794       O  0.95142812  0.00515275  0.68895353    -0.53500
C2795       C  0.92506819  0.00460991  0.68466543     0.73700
Zr2796     Zr  0.93874202  0.00301411  0.64823469     2.77500
O2797       O  0.90635851  0.04368653  0.64649744    -0.97100
O2798       O  0.89431100  0.47468389  0.64875684    -0.77900
Zr2799     Zr  0.99967077  0.06362418  0.64869171     2.70100
O2800       O  0.96501031  0.10239378  0.64757167    -0.79100
O2801       O  0.55215497  0.09063434  0.64901622    -0.98200
Zr2802     Zr  0.99796164  0.00483957  0.67674547     2.21500
Zr2803     Zr  0.00004271  0.00162441  0.62284620     2.11100
O2804       O  0.96911419  0.03338661  0.63502616    -2.46900
O2805       O  0.96821734  0.03420303  0.66225108    -0.78900
O2806       O  0.96484591  0.47363542  0.63512499    -0.71100
O2807       O  0.53351341  0.02898927  0.66211065    -2.32100
O2808       O  0.96426344  0.47412858  0.66255065    -2.28300
O2809       O  0.53402650  0.02886509  0.63468877    -0.72900
H2810       H  0.53784483  0.45360029  0.62937729     0.79100
H2811       H  0.54689095  0.03937628  0.66807797     0.80200
H2812       H  0.95777925  0.04465450  0.62858381     0.82400
H2813       H  0.95175777  0.46265477  0.66844522     0.80000
H2814       H  0.60162373  0.03696897  0.64343748     0.43100
H2815       H  0.55800663  0.09088865  0.65905321     0.42000
H2816       H  0.94863336  0.09545034  0.65329890     0.41700
H2817       H  0.90854985  0.05086500  0.63674297     0.39700
H2818       H  0.87795588  0.48810304  0.64919768     0.42800
H2819       H  0.95343169  0.39830440  0.64237910     0.37600
H2820       H  0.52094163  0.38441993  0.64697797     0.43700
H2821       H  0.58422503  0.44629675  0.63653363     0.40100
H2822       H  0.88696516  0.03484173  0.64668020     0.45000
H2823       H  0.93533796  0.42440576  0.64770664     0.43700
H2824       H  0.60743068  0.46133571  0.64590379     0.43900
H2825       H  0.56646783  0.07826310  0.64432842     0.44200
O2826       O  0.57909270  0.99488522  0.33000996    -0.74600
O2827       O  0.54449794  0.99491235  0.31287521    -0.53500
C2828       C  0.57091561  0.99437082  0.31708015     0.79100
O2829       O  0.99809172  0.41909089  0.37637982    -0.59200
O2830       O  0.99586828  0.45628280  0.39208168    -0.52300
C2831       C  0.99706537  0.42932836  0.38904511     0.71100
O2832       O  0.99525209  0.41788601  0.32850841    -0.73800
O2833       O  0.99420764  0.45293722  0.31178181    -0.54400
C2834       C  0.99388010  0.42630444  0.31555890     0.77100
O2835       O  0.57676475  0.99745099  0.37759574    -0.58900
O2836       O  0.53940788  0.99368048  0.39275940    -0.52100
C2837       C  0.56630578  0.99513473  0.39017666     0.73700
Zr2838     Zr  0.55750729  0.99691279  0.35323573     2.54700
O2839       O  0.59988437  0.47786737  0.35599793    -0.79500
O2840       O  0.59485776  0.03394937  0.35296431    -0.92900
Zr2841     Zr  0.99813882  0.43881202  0.35232578     2.64700
O2842       O  0.55369082  0.41653939  0.35141361    -0.97900
O2843       O  0.96440049  0.39874855  0.35329370    -0.79900
O2844       O  0.53372926  0.47424910  0.33886154    -0.83300
O2845       O  0.53357081  0.47444463  0.36610265    -2.18000
O2846       O  0.99224921  0.08217785  0.37376799    -0.66700
O2847       O  0.99860656  0.04660965  0.39004177    -0.51200
C2848       C  0.99554669  0.07313839  0.38647983     0.72100
O2849       O  0.92025653  0.99052233  0.32801179    -0.59600
O2850       O  0.95462990  0.99543156  0.31107524    -0.51600
C2851       C  0.92828088  0.99267188  0.31505163     0.73900
O2852       O  0.92237460  0.98626462  0.37585894    -0.71000
O2853       O  0.95803287  0.99555752  0.39165516    -0.49700
C2854       C  0.93198095  0.98907180  0.38857631     0.75300
O2855       O  0.98956352  0.07778472  0.32624530    -0.66300
O2856       O  0.99602227  0.04183192  0.31011028    -0.53500
C2857       C  0.99180074  0.06831207  0.31350370     0.73700
Zr2858     Zr  0.99235241  0.05972286  0.35039673     2.77500
O2859       O  0.95058421  0.09073019  0.34953994    -0.97100
O2860       O  0.53576878  0.09461414  0.34887871    -0.77900
Zr2861     Zr  0.94101411  0.99069351  0.35168071     2.70100
O2862       O  0.89894173  0.02124697  0.35203072    -0.79100
O2863       O  0.90151580  0.45797100  0.35451606    -0.98200
Zr2864     Zr  0.00014665  0.99824545  0.32395649     2.21500
Zr2865     Zr  0.00070862  0.00071114  0.37778870     2.11100
O2866       O  0.96605891  0.02661434  0.36463120    -2.46900
O2867       O  0.96613639  0.02454855  0.33744769    -0.78900
O2868       O  0.52812405  0.02880905  0.36609550    -0.71100
O2869       O  0.96638406  0.46733545  0.33874832    -2.32100
O2870       O  0.52876809  0.02752402  0.33884389    -2.28300
O2871       O  0.96622265  0.46754971  0.36580508    -0.72900
H2872       H  0.54661533  0.46475572  0.37238708     0.79100
H2873       H  0.95460940  0.45502837  0.33283786     0.80200
H2874       H  0.95308564  0.03682183  0.37076191     0.82400
H2875       H  0.54088315  0.03904584  0.33278092     0.80000
H2876       H  0.94612235  0.40763378  0.35620738     0.43100
H2877       H  0.88387702  0.46515611  0.34996088     0.42000
H2878       H  0.88297592  0.00845310  0.34897692     0.41700
H2879       H  0.93555736  0.08009726  0.35480043     0.39700
H2880       H  0.55387396  0.08413868  0.35046220     0.42800
H2881       H  0.61300570  0.02320732  0.35386033     0.37600
H2882       H  0.61598201  0.48805325  0.35131263     0.43700
H2883       H  0.54936770  0.39626314  0.35389381     0.40100
H2884       H  0.95555216  0.10740016  0.35563687     0.45000
H2885       H  0.59285462  0.04422303  0.36207072     0.43700
H2886       H  0.55862868  0.41590458  0.34126921     0.43900
H2887       H  0.90875491  0.44288939  0.34808521     0.44200
N2888       N  0.52353651  0.25026332  0.52179177    -0.36000
N2889       N  0.52845845  0.20571943  0.50031369    -0.56500
N2890       N  0.52258049  0.25049294  0.47928321    -0.35900
N2891       N  0.51772204  0.29495668  0.50086490    -0.56500
C2892       C  0.53127402  0.22758550  0.52980974     0.27600
C2893       C  0.52534092  0.27394256  0.53012734     0.27600
C2894       C  0.51876335  0.22666772  0.47113576     0.27600
C2895       C  0.51454715  0.27334322  0.47139538     0.27600
C2896       C  0.52957485  0.18845145  0.51172666     0.36300
C2897       C  0.52956170  0.18847298  0.48883223     0.36300
C2898       C  0.51439397  0.31177316  0.51237271     0.36300
C2899       C  0.51587126  0.31235162  0.48954369     0.36300
C2900       C  0.53831849  0.23699443  0.54328459    -0.21200
C2901       C  0.53460968  0.26619014  0.54348420    -0.21200
C2902       C  0.50813866  0.23464557  0.45805813    -0.21200
C2903       C  0.50572748  0.26395813  0.45818740    -0.21200
C2904       C  0.53158442  0.15995309  0.50750562    -0.22300
C2905       C  0.53236255  0.16002723  0.49300512    -0.22300
C2906       C  0.50998493  0.34004976  0.50833012    -0.22300
C2907       C  0.51175989  0.34054897  0.49386891    -0.22300
C2908       C  0.52965721  0.19822696  0.52586563    -0.17600
C2909       C  0.51717483  0.30221581  0.52643788    -0.17600
C2910       C  0.51553555  0.30274567  0.47539766    -0.17600
C2911       C  0.52532513  0.19781084  0.47476477    -0.17600
H2912       H  0.54493389  0.22403699  0.55215955     0.15300
H2913       H  0.53794131  0.28008577  0.55254107     0.15300
H2914       H  0.50263048  0.22077220  0.44924961     0.15300
H2915       H  0.49800809  0.27690257  0.44953202     0.15300
H2916       H  0.53277277  0.14109754  0.51414193     0.13600
H2917       H  0.53369999  0.14113639  0.48633586     0.13600
H2918       H  0.50654069  0.35854001  0.51507188     0.13600
H2919       H  0.50927276  0.35937186  0.48730591     0.13600
H2920       H  0.51380181  0.24906937  0.51195539     0.26800
H2921       H  0.53294654  0.25151681  0.48897495     0.26800
N2922       N  0.74954186  0.52184731  0.52209245    -0.36000
N2923       N  0.70399302  0.52806815  0.50137955    -0.56500
N2924       N  0.74726156  0.52669237  0.47959578    -0.35900
N2925       N  0.79308714  0.52294913  0.50030489    -0.56500
C2926       C  0.72700353  0.52655050  0.53069323     0.27600
C2927       C  0.77350290  0.52411849  0.53005970     0.27600
C2928       C  0.72402721  0.53426142  0.47195800     0.27600
C2929       C  0.77059882  0.53178603  0.47151613     0.27600
C2930       C  0.68769022  0.52294788  0.51286117     0.36300
C2931       C  0.68648232  0.52549456  0.49008441     0.36300
C2932       C  0.80975552  0.51548482  0.51130934     0.36300
C2933       C  0.80847906  0.51773877  0.48856094     0.36300
C2934       C  0.73679844  0.53157846  0.54432002    -0.21200
C2935       C  0.76608516  0.53020148  0.54390280    -0.21200
C2936       C  0.73278157  0.54421103  0.45885602    -0.21200
C2937       C  0.76215039  0.54282639  0.45862086    -0.21200
C2938       C  0.65946738  0.51788672  0.50888105    -0.22300
C2939       C  0.65870602  0.51948885  0.49441321    -0.22300
C2940       C  0.83618324  0.50611976  0.50658555    -0.22300
C2941       C  0.83532828  0.50742483  0.49210343    -0.22300
C2942       C  0.69778631  0.52384135  0.52690435    -0.17600
C2943       C  0.80165616  0.51805956  0.52555553    -0.17600
C2944       C  0.79891343  0.52349948  0.47476025    -0.17600
C2945       C  0.69511838  0.52986419  0.47598997    -0.17600
H2946       H  0.72424613  0.53513253  0.55373459     0.15300
H2947       H  0.78020881  0.53251157  0.55290929     0.15300
H2948       H  0.71947373  0.55109328  0.45017557     0.15300
H2949       H  0.77569899  0.54837602  0.44976109     0.15300
H2950       H  0.64133773  0.51352284  0.51568255     0.13600
H2951       H  0.63987665  0.51667173  0.48784936     0.13600
H2952       H  0.85410255  0.49902385  0.51290671     0.13600
H2953       H  0.85251063  0.50163646  0.48501001     0.13600
H2954       H  0.74840303  0.51365584  0.51193957     0.26800
H2955       H  0.74694543  0.51462767  0.48877528     0.26800
C2956       C  0.99919045  0.24759301  0.25000700    -0.01800
C2957       C  0.51545425  0.38087391  0.28293408    -0.04800
C2958       C  0.99467058  0.35585017  0.28526881     0.09300
C2959       C  0.97779216  0.35394712  0.29755480    -0.02200
C2960       C  0.97611217  0.37754973  0.30694516    -0.00500
C2961       C  0.99186352  0.40330003  0.30435000    -0.04100
C2962       C  0.51460633  0.40536966  0.29187487     0.02900
C2963       C  0.99684752  0.33028914  0.27550767     0.09800
C2964       C  0.96143249  0.32784165  0.30035193     0.35700
C2965       C  0.52867847  0.43182285  0.28748990     0.39100
C2966       C  0.52353568  0.31054217  0.27718816    -0.04400
C2967       C  0.52261179  0.28429585  0.26943463     0.02700
C2968       C  0.99814503  0.27783185  0.25864611    -0.04000
C2969       C  0.97548150  0.29902285  0.25742623    -0.00300
C2970       C  0.97441770  0.32368741  0.26626809    -0.02800
C2971       C  0.54827018  0.31785970  0.28589541     0.36400
C2972       C  0.95455039  0.29936728  0.24620925     0.40000
C2973       C  0.54612414  0.26488581  0.27216081     0.39200
C2974       C  0.95067780  0.34380077  0.26530051     0.36100
C2975       C  0.53196543  0.38172370  0.26999382     0.36800
C2976       C  0.95618070  0.37594485  0.31864650     0.40000
N2977       N  0.56560387  0.25111921  0.27538865    -0.38000
N2978       N  0.56802003  0.32385571  0.29274186    -0.39600
N2979       N  0.93742272  0.30157723  0.23748231    -0.37400
N2980       N  0.93200499  0.35995427  0.26447920    -0.39800
N2981       N  0.94802240  0.30723842  0.30253605    -0.39500
N2982       N  0.93967618  0.37441664  0.32771497    -0.37200
N2983       N  0.53940571  0.45300879  0.28370854    -0.38200
N2984       N  0.54514599  0.38233519  0.25966909    -0.39900
C2985       C  0.96752207  0.13338827  0.29255208    -0.04800
C2986       C  0.99162456  0.13839110  0.28386506     0.09300
C2987       C  0.51086651  0.11760472  0.28435681    -0.02200
C2988       C  0.51177302  0.09406185  0.29373620    -0.00500
C2989       C  0.98986299  0.09008049  0.30206199    -0.04100
C2990       C  0.96711346  0.10996826  0.30197198     0.02900
C2991       C  0.99377149  0.16591602  0.27553001     0.09800
C2992       C  0.53337337  0.12115107  0.27395424     0.35700
C2993       C  0.94277185  0.10581099  0.31127180     0.39100
C2994       C  0.49445629  0.19170376  0.28370707    -0.04400
C2995       C  0.49397209  0.21799249  0.27617322     0.02700
C2996       C  0.99708782  0.21924109  0.25967840    -0.04000
C2997       C  0.99471247  0.19119584  0.25295249    -0.00300
C2998       C  0.99144071  0.16552887  0.26082596    -0.02800
C2999       C  0.49960932  0.19178132  0.29883694     0.36400
C3000       C  0.99861053  0.18718166  0.23791256     0.40000
C3001       C  0.48892670  0.24315813  0.28482583     0.39200
C3002       C  0.98585528  0.13823477  0.25370970     0.36100
C3003       C  0.94321600  0.15259534  0.29183175     0.36800
C3004       C  0.53512635  0.07385503  0.29276676     0.40000
N3005       N  0.48424354  0.26214601  0.29239250    -0.38000
N3006       N  0.50385505  0.19165290  0.31085900    -0.39600
N3007       N  0.00237268  0.18160813  0.22616490    -0.37400
N3008       N  0.98133917  0.11648123  0.24809553    -0.39800
N3009       N  0.55122684  0.12338014  0.26555817    -0.39500
N3010       N  0.55368118  0.05769354  0.29160344    -0.37200
N3011       N  0.92328961  0.10244794  0.31864615    -0.38200
N3012       N  0.92391488  0.16800757  0.29114788    -0.39900
C3013       C  0.50278473  0.13727552  0.44937945    -0.04800
C3014       C  0.52222781  0.14158973  0.43813122     0.09300
C3015       C  0.54408731  0.16274469  0.43952755    -0.02200
C3016       C  0.54650021  0.17920281  0.45202683    -0.00500
C3017       C  0.52581063  0.17626033  0.46286414    -0.04100
C3018       C  0.50365469  0.15546463  0.46133554     0.02900
C3019       C  0.99686410  0.12540782  0.42395463     0.09800
C3020       C  0.56350406  0.16839541  0.42789894     0.35700
C3021       C  0.48082657  0.15378628  0.47167683     0.39100
C3022       C  0.97361995  0.12793972  0.41434385    -0.04400
C3023       C  0.97325563  0.11172216  0.40167039     0.02700
C3024       C  0.99691762  0.09451098  0.39811728    -0.04000
C3025       C  0.53702366  0.08955687  0.40760984    -0.00300
C3026       C  0.54028813  0.10515501  0.42030239    -0.02800
C3027       C  0.94993195  0.14688461  0.41752843     0.36400
C3028       C  0.56093385  0.07344204  0.40200067     0.40000
C3029       C  0.94882580  0.11299567  0.39223110     0.39200
C3030       C  0.56538018  0.10047884  0.42902604     0.36100
C3031       C  0.95481593  0.11456839  0.44615768     0.36800
C3032       C  0.56946325  0.20037521  0.45342695     0.40000
N3033       N  0.92945335  0.11417538  0.38462134    -0.38000
N3034       N  0.93088539  0.16177142  0.42014700    -0.39600
N3035       N  0.58033515  0.06132527  0.39735746    -0.37400
N3036       N  0.58544206  0.09659607  0.43593385    -0.39800
N3037       N  0.57905161  0.17288549  0.41864782    -0.39500
N3038       N  0.58761821  0.21742522  0.45448851    -0.37200
N3039       N  0.46261409  0.15254804  0.47993252    -0.38200
N3040       N  0.93813814  0.09616291  0.44472189    -0.39900
C3041       C  0.52899484  0.40018961  0.42469586    -0.04800
C3042       C  0.51280299  0.37447814  0.42530251     0.09300
C3043       C  0.97693773  0.36700554  0.41353905    -0.02200
C3044       C  0.97926639  0.38403378  0.40126454    -0.00500
C3045       C  0.99692418  0.40904539  0.40124242    -0.04100
C3046       C  0.52907482  0.41691322  0.41235726     0.02900
C3047       C  0.51351866  0.35664114  0.43844652     0.09800
C3048       C  0.95932737  0.34107645  0.41339667     0.35700
C3049       C  0.54946633  0.44046426  0.41122594     0.39100
C3050       C  0.96491294  0.35612365  0.44730077    -0.04400
C3051       C  0.96385497  0.33860326  0.45942461     0.02700
C3052       C  0.51545609  0.32419012  0.46364379    -0.04000
C3053       C  0.54000353  0.32660433  0.45499881    -0.00300
C3054       C  0.53876111  0.34193358  0.44223200    -0.02800
C3055       C  0.94032453  0.37324287  0.44338933     0.36400
C3056       C  0.56648976  0.31286345  0.45921313     0.40000
C3057       C  0.93741125  0.33575538  0.46732517     0.39200
C3058       C  0.56350099  0.34254461  0.43297633     0.36100
C3059       C  0.54515407  0.40976982  0.43697158     0.36800
C3060       C  0.96271734  0.37596492  0.38890793     0.40000
N3061       N  0.91632424  0.33334990  0.47364544    -0.38000
N3062       N  0.92079090  0.38696958  0.44019798    -0.39600
N3063       N  0.58757772  0.30198366  0.46266730    -0.37400
N3064       N  0.58331107  0.34309131  0.42564483    -0.39800
N3065       N  0.94510119  0.32051434  0.41325807    -0.39500
N3066       N  0.94922138  0.36890897  0.37923076    -0.37200
N3067       N  0.56658197  0.45855844  0.41052053    -0.38200
N3068       N  0.55780442  0.41724492  0.44685336    -0.39900
C3069       C  0.66005083  0.01152284  0.44229431    -0.04800
C3070       C  0.63914540  0.52801904  0.43990935     0.09300
C3071       C  0.64729623  0.50203455  0.44638529    -0.02200
C3072       C  0.66411149  0.50265939  0.45872904    -0.00500
C3073       C  0.67307658  0.52928498  0.46456112    -0.04100
C3074       C  0.67797305  0.01116870  0.45424304     0.02900
C3075       C  0.62117463  0.52708146  0.42686241     0.09800
C3076       C  0.63828418  0.47468076  0.44030207     0.35700
C3077       C  0.69844253  0.03442255  0.45664502     0.39100
C3078       C  0.63197217  0.98083154  0.41373298    -0.04400
C3079       C  0.61425385  0.98282252  0.40166507     0.02700
C3080       C  0.58600616  0.99386885  0.40279098    -0.04000
C3081       C  0.57377701  0.52526424  0.41600973    -0.00300
C3082       C  0.59124979  0.52840596  0.42804227    -0.02800
C3083       C  0.66075457  0.96945892  0.41255045     0.36400
C3084       C  0.54296077  0.52712905  0.41805991     0.40000
C3085       C  0.62501808  0.97212149  0.38832661     0.39200
C3086       C  0.57838770  0.53244653  0.44185348     0.36100
C3087       C  0.66157650  0.03547105  0.43253858     0.36800
C3088       C  0.67196460  0.47593425  0.46552904     0.40000
N3089       N  0.63395315  0.96335867  0.37779252    -0.38000
N3090       N  0.68368901  0.96032571  0.41166914    -0.39600
N3091       N  0.51848505  0.52849126  0.41993043    -0.37400
N3092       N  0.56821987  0.53566853  0.45286149    -0.39800
N3093       N  0.63100521  0.45294644  0.43539504    -0.39500
N3094       N  0.67784098  0.45461757  0.47106897    -0.37200
N3095       N  0.71495877  0.05277065  0.45861255    -0.38200
N3096       N  0.66277435  0.05452555  0.42472427    -0.39900
C3097       C  0.84835141  0.00489596  0.44362213    -0.04800
C3098       C  0.85724613  0.97874401  0.43743459     0.09300
C3099       C  0.83085488  0.49346366  0.44109520    -0.02200
C3100       C  0.81485965  0.49560642  0.45360433    -0.00500
C3101       C  0.81887865  0.51948366  0.46268282    -0.04100
C3102       C  0.83070054  0.00449491  0.45562886     0.02900
C3103       C  0.87558541  0.97932778  0.42453882     0.09800
C3104       C  0.82587286  0.46950787  0.43151186     0.35700
C3105       C  0.81969829  0.03125404  0.46130533     0.39100
C3106       C  0.89338523  0.49212287  0.42577484    -0.04400
C3107       C  0.91089683  0.48799340  0.41388439     0.02700
C3108       C  0.91195285  0.98449076  0.40069048    -0.04000
C3109       C  0.88279890  0.99276978  0.39986083    -0.00300
C3110       C  0.86451468  0.98912483  0.41157809    -0.02800
C3111       C  0.89986627  0.47762186  0.43893607     0.36400
C3112       C  0.87166616  0.00662766  0.38735117     0.40000
C3113       C  0.93420823  0.46766505  0.41487411     0.39200
C3114       C  0.83427912  0.99585643  0.41037906     0.36100
C3115       C  0.85758335  0.03222731  0.43768935     0.36800
C3116       C  0.79416672  0.47326532  0.45719147     0.40000
N3117       N  0.95268607  0.45143758  0.41612304    -0.38000
N3118       N  0.90499821  0.46641354  0.44950876    -0.39600
N3119       N  0.86237854  0.01799823  0.37754368    -0.37400
N3120       N  0.81016853  0.00120086  0.40941815    -0.39800
N3121       N  0.82182729  0.45043348  0.42385296    -0.39500
N3122       N  0.77768686  0.45549808  0.46014092    -0.37200
N3123       N  0.81076687  0.05258973  0.46576755    -0.38200
N3124       N  0.86500073  0.05396891  0.43292778    -0.39900
C3125       C  0.59810003  0.00299157  0.57360809    -0.04800
C3126       C  0.62466188  0.51042238  0.57569452     0.09300
C3127       C  0.63584776  0.50222528  0.58886179    -0.02200
C3128       C  0.61743707  0.49844318  0.60054468    -0.00500
C3129       C  0.58934191  0.99513819  0.59898446    -0.04100
C3130       C  0.58044537  0.00580365  0.58558350     0.02900
C3131       C  0.64369860  0.51391091  0.56320096     0.09800
C3132       C  0.66641263  0.49749479  0.59032540     0.35700
C3133       C  0.55362624  0.02096535  0.58388298     0.39100
C3134       C  0.66342633  0.01312865  0.55953801    -0.04400
C3135       C  0.68080899  0.01333754  0.54738661     0.02700
C3136       C  0.67687997  0.52072693  0.53863902    -0.04000
C3137       C  0.66845437  0.49292852  0.54305509    -0.00300
C3138       C  0.65165622  0.48954027  0.55525092    -0.02800
C3139       C  0.66496071  0.03689286  0.56948817     0.36400
C3140       C  0.67767699  0.46782749  0.53518074     0.40000
C3141       C  0.70006582  0.03745105  0.54478254     0.39200
C3142       C  0.64246721  0.46101546  0.55962967     0.36100
C3143       C  0.58838087  0.01328400  0.55997754     0.36800
C3144       C  0.62943331  0.48789206  0.61362472     0.40000
N3145       N  0.71544594  0.05667247  0.54269398    -0.38000
N3146       N  0.66612372  0.05574325  0.57749119    -0.39600
N3147       N  0.68513451  0.44791476  0.52884759    -0.37400
N3148       N  0.63512173  0.43826676  0.56313397    -0.39800
N3149       N  0.69079165  0.49373262  0.59150681    -0.39500
N3150       N  0.63946523  0.47938579  0.62394659    -0.37200
N3151       N  0.53240671  0.03311289  0.58208372    -0.38200
N3152       N  0.58066346  0.02138268  0.54910328    -0.39900
C3153       C  0.85186392  0.01193958  0.55347737    -0.04800
C3154       C  0.85979609  0.98680944  0.56075416     0.09300
C3155       C  0.84135749  0.48304990  0.55566666    -0.02200
C3156       C  0.82531196  0.48626077  0.54321635    -0.00500
C3157       C  0.82337966  0.51352295  0.53678447    -0.04100
C3158       C  0.83533788  0.00972096  0.54110396     0.02900
C3159       C  0.87779941  0.98917859  0.57368445     0.09800
C3160       C  0.84316837  0.45510275  0.56237617     0.35700
C3161       C  0.82716710  0.03550304  0.53355922     0.39100
C3162       C  0.86529787  0.99453248  0.58691699    -0.04400
C3163       C  0.88261878  0.99702024  0.59910274     0.02700
C3164       C  0.91288361  0.99394586  0.59815613    -0.04000
C3165       C  0.91902935  0.49353978  0.58549168    -0.00300
C3166       C  0.90123328  0.49429788  0.57354187    -0.02800
C3167       C  0.83444554  0.99773257  0.58791942     0.36400
C3168       C  0.94863077  0.48503200  0.58337801     0.40000
C3169       C  0.86888166  0.00338780  0.61244186     0.39200
C3170       C  0.91233498  0.48599995  0.55981301     0.36100
C3171       C  0.86097483  0.03999499  0.55868437     0.36800
C3172       C  0.81007673  0.46176046  0.53718615     0.40000
N3173       N  0.85772754  0.00843079  0.62304618    -0.38000
N3174       N  0.80984681  0.00035909  0.58870137    -0.39600
N3175       N  0.97216227  0.47853508  0.58132224    -0.37400
N3176       N  0.92112273  0.47933000  0.54888802    -0.39800
N3177       N  0.84466863  0.43278239  0.56770390    -0.39500
N3178       N  0.79789081  0.44228503  0.53232629    -0.37200
N3179       N  0.82090700  0.05601744  0.52743004    -0.38200
N3180       N  0.86836845  0.06233580  0.56283578    -0.39900
C3181       C  0.53448504  0.13126073  0.58731329    -0.04800
C3182       C  0.00083725  0.12695483  0.57578728     0.09300
C3183       C  0.97998144  0.10492759  0.57709623    -0.02200
C3184       C  0.97799086  0.08905393  0.58962917    -0.00500
C3185       C  0.99876837  0.09278703  0.60034117    -0.04100
C3186       C  0.53088005  0.11431201  0.59950081     0.02900
C3187       C  0.52095917  0.14368519  0.56230769     0.09800
C3188       C  0.96064564  0.09842687  0.56546928     0.35700
C3189       C  0.54961716  0.11915035  0.61151652     0.39100
C3190       C  0.54584969  0.14173046  0.55390799    -0.04400
C3191       C  0.54912870  0.15967291  0.54204160     0.02700
C3192       C  0.52619396  0.17715997  0.53763489    -0.04000
C3193       C  0.97845050  0.17910692  0.54706493    -0.00300
C3194       C  0.97855622  0.16330808  0.55966911    -0.02800
C3195       C  0.56796871  0.12124254  0.55750363     0.36400
C3196       C  0.95407619  0.19708931  0.54375267     0.40000
C3197       C  0.57653238  0.16135907  0.53490370     0.39200
C3198       C  0.95485411  0.16600163  0.56949334     0.36100
C3199       C  0.55579177  0.15424198  0.58716359     0.36800
C3200       C  0.95343678  0.07025850  0.59179121     0.40000
N3201       N  0.59858490  0.16295975  0.52937077    -0.38000
N3202       N  0.58540214  0.10471401  0.56042887    -0.39600
N3203       N  0.93451317  0.21127521  0.54116111    -0.37400
N3204       N  0.93584734  0.16785222  0.57726658    -0.39800
N3205       N  0.94528135  0.09334767  0.55617624    -0.39500
N3206       N  0.93315967  0.05616563  0.59344013    -0.37200
N3207       N  0.56465638  0.12320269  0.62104891    -0.38200
N3208       N  0.57295228  0.17241312  0.58702053    -0.39900
C3209       C  0.96697182  0.39416677  0.57950922    -0.04800
C3210       C  0.50245555  0.37232123  0.57665956     0.09300
C3211       C  0.52255519  0.36979956  0.58775761    -0.02200
C3212       C  0.51998459  0.38716785  0.59990437    -0.00500
C3213       C  0.99066017  0.41190455  0.60082065    -0.04100
C3214       C  0.96596397  0.40957475  0.59231745     0.02900
C3215       C  0.50580491  0.35524056  0.56338738     0.09800
C3216       C  0.54583586  0.34942147  0.58666779     0.35700
C3217       C  0.93924083  0.42203979  0.59705256     0.39100
C3218       C  0.52853563  0.36135917  0.55398928    -0.04400
C3219       C  0.53199659  0.34463595  0.54168413     0.02700
C3220       C  0.51191297  0.32267102  0.53835495    -0.04000
C3221       C  0.97263789  0.31858666  0.54932066    -0.00300
C3222       C  0.97261853  0.33563864  0.56166363    -0.02800
C3223       C  0.54840982  0.38482055  0.55701131     0.36400
C3224       C  0.95206980  0.29509605  0.54794961     0.40000
C3225       C  0.55641571  0.34974174  0.53255088     0.39200
C3226       C  0.95356708  0.32822268  0.57321972     0.36100
C3227       C  0.94347127  0.39648809  0.56955946     0.36800
C3228       C  0.54262874  0.38754335  0.61041377     0.40000
N3229       N  0.57567547  0.35392014  0.52513123    -0.38000
N3230       N  0.56429091  0.40349919  0.55944810    -0.39600
N3231       N  0.93565333  0.27634694  0.54698792    -0.37400
N3232       N  0.93844202  0.32238392  0.58246344    -0.39800
N3233       N  0.56432717  0.33305819  0.58583259    -0.39500
N3234       N  0.56078266  0.38806557  0.61874672    -0.37200
N3235       N  0.91776676  0.43137615  0.60100077    -0.38200
N3236       N  0.92488531  0.39878594  0.56155633    -0.39900
C3237       C  0.60777148  0.23040638  0.20600999    -0.04800
C3238       C  0.60787270  0.24909106  0.21779442     0.09300
C3239       C  0.63206118  0.26696687  0.22029447    -0.02200
C3240       C  0.65499975  0.26769981  0.21054439    -0.00500
C3241       C  0.65423087  0.24999735  0.19836770    -0.04100
C3242       C  0.63087458  0.23068150  0.19643458     0.02900
C3243       C  0.58234147  0.24983441  0.22749363     0.09800
C3244       C  0.63339590  0.28440138  0.23300238     0.35700
C3245       C  0.63090657  0.21025683  0.18480694     0.39100
C3246       C  0.57706888  0.22713179  0.23682054    -0.04400
C3247       C  0.55179882  0.22625315  0.24512455     0.02700
C3248       C  0.52951771  0.24769519  0.24355435    -0.04000
C3249       C  0.53753562  0.27236854  0.23509283    -0.00300
C3250       C  0.56331649  0.27301817  0.22716418    -0.02800
C3251       C  0.59873221  0.20493108  0.23822036     0.36400
C3252       C  0.51871158  0.29674527  0.23319327     0.40000
C3253       C  0.55213443  0.20482196  0.25619453     0.39200
C3254       C  0.56975764  0.29722581  0.21797357     0.36100
C3255       C  0.58400968  0.21051880  0.20374240     0.36800
C3256       C  0.67887005  0.28734244  0.21290519     0.40000
N3257       N  0.55420873  0.18801692  0.26511232    -0.38000
N3258       N  0.61606660  0.18740697  0.23933040    -0.39600
N3259       N  0.00316280  0.31676964  0.22867555    -0.37400
N3260       N  0.57501148  0.31646461  0.21066440    -0.39800
N3261       N  0.63447829  0.29819028  0.24318163    -0.39500
N3262       N  0.69779723  0.30308519  0.21498387    -0.37200
N3263       N  0.63074165  0.19370435  0.17565538    -0.38200
N3264       N  0.56546295  0.19422378  0.20182852    -0.39900
C3265       C  0.88230318  0.26663146  0.20847556    -0.04800
C3266       C  0.89228347  0.24063327  0.21445330     0.09300
C3267       C  0.87785622  0.21447211  0.21119901    -0.02200
C3268       C  0.85356798  0.21438315  0.20227775    -0.00500
C3269       C  0.84364625  0.24039477  0.19651026    -0.04100
C3270       C  0.85851923  0.26632733  0.19929768     0.02900
C3271       C  0.91934814  0.24041238  0.22315447     0.09800
C3272       C  0.88883059  0.18747745  0.21650282     0.35700
C3273       C  0.85036970  0.29245687  0.19195405     0.39100
C3274       C  0.91831325  0.23634962  0.23776885    -0.04400
C3275       C  0.94348705  0.23908359  0.24610185     0.02700
C3276       C  0.97154672  0.24377855  0.23985383    -0.04000
C3277       C  0.97194376  0.24325077  0.22456340    -0.00300
C3278       C  0.94611717  0.24321643  0.21659235    -0.02800
C3279       C  0.89082442  0.22995930  0.24432860     0.36400
C3280       C  0.99764305  0.24011128  0.21619585     0.40000
C3281       C  0.93887678  0.24031340  0.26121976     0.39200
C3282       C  0.94691698  0.24469775  0.20126493     0.36100
C3283       C  0.89683831  0.29380623  0.21118265     0.36800
C3284       C  0.83991097  0.18736288  0.19826430     0.40000
N3285       N  0.93319249  0.24167652  0.27307390    -0.38000
N3286       N  0.86900081  0.22435884  0.24948202    -0.39600
N3287       N  0.51995385  0.23452805  0.21078907    -0.37400
N3288       N  0.94728377  0.24580200  0.18908003    -0.39800
N3289       N  0.89764270  0.16594506  0.22072591    -0.39500
N3290       N  0.82911207  0.16582940  0.19494460    -0.37200
N3291       N  0.84394118  0.31311120  0.18597528    -0.38200
N3292       N  0.90752966  0.31617450  0.21279037    -0.39900
C3293       C  0.75740605  0.10238926  0.05587880    -0.04800
C3294       C  0.73163182  0.10750608  0.06326471     0.09300
C3295       C  0.70558490  0.09559750  0.05812171    -0.02200
C3296       C  0.70545931  0.07843525  0.04584465    -0.00500
C3297       C  0.73150112  0.07153706  0.03915108    -0.04100
C3298       C  0.75746192  0.08377578  0.04410620     0.02900
C3299       C  0.73192354  0.12578899  0.07632565     0.09800
C3300       C  0.67893545  0.10056684  0.06557341     0.35700
C3301       C  0.78427502  0.07688536  0.03719896     0.39100
C3302       C  0.71858580  0.15289113  0.07629174    -0.04400
C3303       C  0.71816262  0.16979404  0.08863606     0.02700
C3304       C  0.73371478  0.16131778  0.10075970    -0.04000
C3305       C  0.74774871  0.13441484  0.10064462    -0.00300
C3306       C  0.74579214  0.11624532  0.08869852    -0.02800
C3307       C  0.70563594  0.16368852  0.06344212     0.36400
C3308       C  0.76551364  0.12590991  0.11244873     0.40000
C3309       C  0.70060324  0.19533407  0.08886814     0.39200
C3310       C  0.75817674  0.08770937  0.08912666     0.36100
C3311       C  0.78382739  0.11647150  0.06035367     0.36800
C3312       C  0.67862511  0.06717166  0.04024026     0.40000
N3313       N  0.68602217  0.21531252  0.08877212    -0.38000
N3314       N  0.69532974  0.17232362  0.05320789    -0.39600
N3315       N  0.78001346  0.11910823  0.12174490    -0.37400
N3316       N  0.76801324  0.06493423  0.08951336    -0.39800
N3317       N  0.65759928  0.10462225  0.07143692    -0.39500
N3318       N  0.65728874  0.05819472  0.03569209    -0.37200
N3319       N  0.80569790  0.07143411  0.03170374    -0.38200
N3320       N  0.80482996  0.12781057  0.06393731    -0.39900
C3321       C  0.78716021  0.35391895  0.08093630    -0.04800
C3322       C  0.76711425  0.37592998  0.07860094     0.09300
C3323       C  0.74609056  0.38168920  0.08894209    -0.02200
C3324       C  0.74470838  0.36503252  0.10137418    -0.00500
C3325       C  0.76457635  0.34273670  0.10362164    -0.04100
C3326       C  0.78637488  0.33792004  0.09354162     0.02900
C3327       C  0.76761672  0.39257059  0.06506949     0.09800
C3328       C  0.72514150  0.40401845  0.08648897     0.35700
C3329       C  0.80838879  0.31676543  0.09621257     0.39100
C3330       C  0.74698360  0.38670848  0.05451276    -0.04400
C3331       C  0.74578522  0.40387741  0.04228806     0.02700
C3332       C  0.76575484  0.42659901  0.04033987    -0.04000
C3333       C  0.78727961  0.43158701  0.05061756    -0.00300
C3334       C  0.78823350  0.41458919  0.06291663    -0.02800
C3335       C  0.72675881  0.36312345  0.05636008     0.36400
C3336       C  0.80766020  0.45510004  0.04882395     0.40000
C3337       C  0.72297065  0.39922077  0.03210073     0.39200
C3338       C  0.81013907  0.42006897  0.07348655     0.36100
C3339       C  0.80770784  0.34679177  0.07002862     0.36800
C3340       C  0.72192969  0.36983351  0.11148196     0.40000
N3341       N  0.70470718  0.39564599  0.02399010    -0.38000
N3342       N  0.71070358  0.34425116  0.05789780    -0.39600
N3343       N  0.82370413  0.47406382  0.04747868    -0.37400
N3344       N  0.82775677  0.42433189  0.08186384    -0.39800
N3345       N  0.70830228  0.42166971  0.08443310    -0.39500
N3346       N  0.70372361  0.37358641  0.11954105    -0.37200
N3347       N  0.82635460  0.30029954  0.09829667    -0.38200
N3348       N  0.82384943  0.34094565  0.06124148    -0.39900
C3349       C  0.75845496  0.08266004  0.94374113    -0.04800
C3350       C  0.73634730  0.10174199  0.93991181     0.09300
C3351       C  0.71210684  0.10439416  0.94877061    -0.02200
C3352       C  0.70946519  0.08722549  0.96099302    -0.00500
C3353       C  0.73144431  0.06795578  0.96465948    -0.04100
C3354       C  0.75640001  0.06662000  0.95628527     0.02900
C3355       C  0.73906522  0.11957641  0.92676718     0.09800
C3356       C  0.68991047  0.12483876  0.94530555     0.35700
C3357       C  0.78034924  0.04923890  0.96086633     0.39100
C3358       C  0.72155539  0.11381084  0.91488344    -0.04400
C3359       C  0.72339952  0.13149245  0.90278548     0.02700
C3360       C  0.74406340  0.15398950  0.90214683    -0.04000
C3361       C  0.76330093  0.15778132  0.91354083    -0.00300
C3362       C  0.75969377  0.14196571  0.92607108    -0.02800
C3363       C  0.70147493  0.08977435  0.91515774     0.36400
C3364       C  0.78819243  0.17637802  0.91199105     0.40000
C3365       C  0.70325516  0.12709888  0.89131036     0.39200
C3366       C  0.77659676  0.14944798  0.93842471     0.36100
C3367       C  0.78312946  0.07901281  0.93463914     0.36800
C3368       C  0.68425969  0.08941791  0.96983998     0.40000
N3369       N  0.68692805  0.12337594  0.88227208    -0.38000
N3370       N  0.68549722  0.07055182  0.91536288    -0.39600
N3371       N  0.80869738  0.19027353  0.91063439    -0.37400
N3372       N  0.78978033  0.15568130  0.94833902    -0.39800
N3373       N  0.67216479  0.14110636  0.94250511    -0.39500
N3374       N  0.66428590  0.09126766  0.97700001    -0.37200
N3375       N  0.79949926  0.03571343  0.96474563    -0.38200
N3376       N  0.80284945  0.07587713  0.92742271    -0.39900
C3377       C  0.73033533  0.36706102  0.92156869    -0.04800
C3378       C  0.75584001  0.36564729  0.92968416     0.09300
C3379       C  0.77934077  0.34988692  0.92446209    -0.02200
C3380       C  0.77800576  0.33743159  0.91093098    -0.00500
C3381       C  0.75207032  0.33730047  0.90327724    -0.04100
C3382       C  0.72814220  0.35200657  0.90864422     0.02900
C3383       C  0.75862019  0.38271375  0.94308918     0.09800
C3384       C  0.80474808  0.34599892  0.93307565     0.35700
C3385       C  0.70120801  0.35123238  0.90097595     0.39100
C3386       C  0.74075365  0.37662756  0.95476572    -0.04400
C3387       C  0.73942640  0.39616113  0.96616577     0.02700
C3388       C  0.75798261  0.42034628  0.96658184    -0.04000
C3389       C  0.77825045  0.42447114  0.95573600    -0.00300
C3390       C  0.77787588  0.40641975  0.94378785    -0.02800
C3391       C  0.72381696  0.35027839  0.95505760     0.36400
C3392       C  0.79921100  0.44766953  0.95681402     0.40000
C3393       C  0.71805746  0.39220452  0.97710189     0.39200
C3394       C  0.79683555  0.41278476  0.93206588     0.36100
C3395       C  0.70636685  0.38405070  0.92648646     0.36800
C3396       C  0.80368509  0.32568005  0.90462195     0.40000
N3397       N  0.70088115  0.38931105  0.98578938    -0.38000
N3398       N  0.71053042  0.32911343  0.95543502    -0.39600
N3399       N  0.81607739  0.46601685  0.95776319    -0.37400
N3400       N  0.81212576  0.41761649  0.92275321    -0.39800
N3401       N  0.82505024  0.34271515  0.93989271    -0.39500
N3402       N  0.82442448  0.31707282  0.89950262    -0.37200
N3403       N  0.67969740  0.35049988  0.89487706    -0.38200
N3404       N  0.68727831  0.39757996  0.93046676    -0.39900
C3405       C  0.97262026  0.14471534  0.70466813    -0.04800
C3406       C  0.99722576  0.15181094  0.71279554     0.09300
C3407       C  0.52678430  0.13061875  0.71358063    -0.02200
C3408       C  0.52795867  0.10697814  0.70407129    -0.00500
C3409       C  0.99667424  0.10223831  0.69502596    -0.04100
C3410       C  0.97211178  0.11967434  0.69615148     0.02900
C3411       C  0.99694701  0.17756355  0.72262126     0.09800
C3412       C  0.55052145  0.13591508  0.72315698     0.35700
C3413       C  0.94651401  0.11231489  0.68815142     0.39100
C3414       C  0.97792917  0.17831343  0.73407073    -0.04400
C3415       C  0.97483653  0.20366645  0.74225999     0.02700
C3416       C  0.99579881  0.22685096  0.74161238    -0.04000
C3417       C  0.51877018  0.22354287  0.73026467    -0.00300
C3418       C  0.51930076  0.19940716  0.72099944    -0.02800
C3419       C  0.96043292  0.15297183  0.73713698     0.36400
C3420       C  0.54125027  0.24488173  0.72814559     0.40000
C3421       C  0.94723284  0.20606502  0.74909941     0.39200
C3422       C  0.53826112  0.19944451  0.70885297     0.36100
C3423       C  0.94812921  0.16378134  0.70465828     0.36800
C3424       C  0.55449535  0.09132852  0.70244236     0.40000
N3425       N  0.92436377  0.20696872  0.75379198    -0.38000
N3426       N  0.94648575  0.13282420  0.73953038    -0.39600
N3427       N  0.55988753  0.26073406  0.72572483    -0.37400
N3428       N  0.55322903  0.19960685  0.69913274    -0.39800
N3429       N  0.56970628  0.13974418  0.73070955    -0.39500
N3430       N  0.57610348  0.07964143  0.70098688    -0.37200
N3431       N  0.92614205  0.10651610  0.68172559    -0.38200
N3432       N  0.92864117  0.17903193  0.70462405    -0.39900
C3433       C  0.51984851  0.36324550  0.70549621    -0.04800
C3434       C  0.99593522  0.35860930  0.71473683     0.09300
C3435       C  0.97296420  0.37830433  0.71469662    -0.02200
C3436       C  0.97273463  0.40167458  0.70512665    -0.00500
C3437       C  0.99630261  0.40685415  0.69610651    -0.04100
C3438       C  0.52012661  0.38808835  0.69696493     0.02900
C3439       C  0.99574589  0.33269965  0.72440991     0.09800
C3440       C  0.94909946  0.37418644  0.72427303     0.35700
C3441       C  0.54472612  0.39411440  0.68804470     0.39100
C3442       C  0.01592701  0.33069365  0.73531611    -0.04400
C3443       C  0.01930692  0.30474593  0.74293038     0.02700
C3444       C  0.99793118  0.28188676  0.74227147    -0.04000
C3445       C  0.97694454  0.28496998  0.73112587    -0.00300
C3446       C  0.97684170  0.30937536  0.72210783    -0.02800
C3447       C  0.03404113  0.35556765  0.73850611     0.36400
C3448       C  0.45595688  0.26264997  0.72849613     0.40000
C3449       C  0.04750308  0.30152197  0.74911801     0.39200
C3450       C  0.95643483  0.31090607  0.71055401     0.36100
C3451       C  0.54301136  0.34268671  0.70443460     0.36800
C3452       C  0.94675444  0.41811145  0.70336777     0.40000
N3453       N  0.07074459  0.30001041  0.75333613    -0.38000
N3454       N  0.04829614  0.37543145  0.74111051    -0.39600
N3455       N  0.43678460  0.24717574  0.72645046    -0.37400
N3456       N  0.94001503  0.31223831  0.70142596    -0.39800
N3457       N  0.92984003  0.37101500  0.73180419    -0.39500
N3458       N  0.92551375  0.43029070  0.70166925    -0.37200
N3459       N  0.56426218  0.39904911  0.68090970    -0.38200
N3460       N  0.56125574  0.32604956  0.70357640    -0.39900
C3461       C  0.61030850  0.22966780  0.79622289    -0.04800
C3462       C  0.60485230  0.25455484  0.78812335     0.09300
C3463       C  0.62411677  0.27825135  0.78907590    -0.02200
C3464       C  0.64811350  0.27723178  0.79825810    -0.00500
C3465       C  0.65400999  0.25195230  0.80596477    -0.04100
C3466       C  0.63496265  0.22817014  0.80482704     0.02900
C3467       C  0.57844050  0.25541201  0.77888066     0.09800
C3468       C  0.61879585  0.30410227  0.78099286     0.35700
C3469       C  0.64022259  0.20233108  0.81295475     0.39100
C3470       C  0.55486499  0.27270215  0.78239745    -0.04400
C3471       C  0.52968495  0.27246044  0.77390178     0.02700
C3472       C  0.52610820  0.25227856  0.76234943    -0.04000
C3473       C  0.54869208  0.23138406  0.76108837    -0.00300
C3474       C  0.57556476  0.23595915  0.76760849    -0.02800
C3475       C  0.55677927  0.29133769  0.79470457     0.36400
C3476       C  0.54401001  0.20225273  0.75600257     0.40000
C3477       C  0.50851781  0.29412326  0.77719234     0.39200
C3478       C  0.60017326  0.21925407  0.76315061     0.36100
C3479       C  0.58981318  0.20591636  0.79612200     0.36800
C3480       C  0.66498878  0.30311316  0.80078577     0.40000
N3481       N  0.99181907  0.31299925  0.77998909    -0.38000
N3482       N  0.55834827  0.30624429  0.80448642    -0.39600
N3483       N  0.54100380  0.17845599  0.75258543    -0.37400
N3484       N  0.61980405  0.20607522  0.75955054    -0.39800
N3485       N  0.61462916  0.32497305  0.77470948    -0.33500
N3486       N  0.67778549  0.32413588  0.80298256    -0.37200
N3487       N  0.64434781  0.18180824  0.81950588    -0.38200
N3488       N  0.57329858  0.18714783  0.79595017    -0.39900
C3489       C  0.92109095  0.26936593  0.76948564    -0.04800
C3490       C  0.91991152  0.25017211  0.78085789     0.09300
C3491       C  0.94421229  0.23340868  0.78371599    -0.02200
C3492       C  0.96815933  0.23367857  0.77443067    -0.00500
C3493       C  0.97031798  0.25409839  0.76295344    -0.04100
C3494       C  0.94710036  0.27440973  0.76225557     0.02900
C3495       C  0.89395960  0.24952204  0.79043178     0.09800
C3496       C  0.94435878  0.21540105  0.79621204     0.35700
C3497       C  0.95017043  0.30328240  0.75671964     0.39100
C3498       C  0.87661140  0.22443693  0.79164542    -0.04400
C3499       C  0.85331175  0.22368517  0.80119411     0.02700
C3500       C  0.84559006  0.24863663  0.80878084    -0.04000
C3501       C  0.86260707  0.27383270  0.80745606    -0.00300
C3502       C  0.88693225  0.27411611  0.79857397    -0.02800
C3503       C  0.88279464  0.19918429  0.78319369     0.36400
C3504       C  0.85543497  0.29938219  0.81552921     0.40000
C3505       C  0.83901938  0.19653832  0.80419554     0.39200
C3506       C  0.90515454  0.29961693  0.79807774     0.36100
C3507       C  0.89544221  0.28475327  0.76535583     0.36800
C3508       C  0.98960763  0.21182172  0.77684913     0.40000
N3509       N  0.82818214  0.17469920  0.80685137    -0.38000
N3510       N  0.88751953  0.17882735  0.77654867    -0.39600
N3511       N  0.84976326  0.31971440  0.82200479    -0.37400
N3512       N  0.91965735  0.31996461  0.79762768    -0.39800
N3513       N  0.94435516  0.20112163  0.80618797    -0.39500
N3514       N  0.00585731  0.19392038  0.77946453    -0.37200
N3515       N  0.95181336  0.32689826  0.75291765    -0.38200
N3516       N  0.87499566  0.29681246  0.76192695    -0.39900
C3517       C  0.82248810  0.02166296  0.73268356    -0.04800
C3518       C  0.82617711  0.99981285  0.72265021     0.09300
C3519       C  0.80308648  0.48053176  0.72097284    -0.02200
C3520       C  0.77795693  0.47944088  0.72943126    -0.00500
C3521       C  0.77514563  0.00115456  0.74027237    -0.04100
C3522       C  0.79670540  0.02382183  0.74053022     0.02900
C3523       C  0.85195482  0.00062690  0.71302314     0.09800
C3524       C  0.80821847  0.45851431  0.71035981     0.35700
C3525       C  0.79230070  0.05171618  0.74690855     0.39100
C3526       C  0.87723864  0.49662328  0.71826733    -0.04400
C3527       C  0.90129449  0.49823891  0.70916644     0.02700
C3528       C  0.90115180  0.00482325  0.69523789    -0.04000
C3529       C  0.87696933  0.02252769  0.69296605    -0.00300
C3530       C  0.85252286  0.02017179  0.70166919    -0.02800
C3531       C  0.88109495  0.48794954  0.73279851     0.36400
C3532       C  0.87753321  0.04431976  0.68205037     0.40000
C3533       C  0.92912027  0.48982709  0.71451967     0.39200
C3534       C  0.82782055  0.03816241  0.69900725     0.36100
C3535       C  0.84534947  0.04292613  0.73452215     0.36800
C3536       C  0.75858671  0.45545497  0.72672941     0.40000
N3537       N  0.95133632  0.48332751  0.71886682    -0.38000
N3538       N  0.88471397  0.48154424  0.74443716    -0.39600
N3539       N  0.87765694  0.06201980  0.67349714    -0.37400
N3540       N  0.80814776  0.05255369  0.69692867    -0.39800
N3541       N  0.81236642  0.44101426  0.70190482    -0.39500
N3542       N  0.74435237  0.43584304  0.72367940    -0.37200
N3543       N  0.78984612  0.07480947  0.75131920    -0.38200
N3544       N  0.86363522  0.05973233  0.73591103    -0.39900
C3545       C  0.67117393  0.47110154  0.73399040    -0.04800
C3546       C  0.66879802  0.99760539  0.72343709     0.09300
C3547       C  0.69075844  0.01795053  0.72124925    -0.02200
C3548       C  0.71596729  0.01805202  0.72973224    -0.00500
C3549       C  0.72055987  0.99666429  0.74057767    -0.04100
C3550       C  0.69777913  0.46944849  0.74121565     0.02900
C3551       C  0.64291535  0.99629957  0.71388220     0.09800
C3552       C  0.68680521  0.03960898  0.71041510     0.35700
C3553       C  0.70384753  0.44118887  0.74681551     0.39100
C3554       C  0.61692553  0.00981957  0.71754887    -0.04400
C3555       C  0.59243330  0.00701445  0.70875831     0.02700
C3556       C  0.59413994  0.99211365  0.69570054    -0.04000
C3557       C  0.61759415  0.47621851  0.69304735    -0.00300
C3558       C  0.64149185  0.47767775  0.70215280    -0.02800
C3559       C  0.61521616  0.02693383  0.73031009     0.36400
C3560       C  0.61964853  0.45801150  0.68065369     0.40000
C3561       C  0.56542927  0.01895571  0.71344884     0.39200
C3562       C  0.66828496  0.46415102  0.69816647     0.36100
C3563       C  0.64954047  0.44853271  0.73559818     0.36800
C3564       C  0.73555696  0.04204425  0.72757307     0.40000
N3565       N  0.54375423  0.02803347  0.71728953    -0.38000
N3566       N  0.61300927  0.04093122  0.74035948    -0.39600
N3567       N  0.62212395  0.44284510  0.67104365    -0.37400
N3568       N  0.68976766  0.45356155  0.69509760    -0.39800
N3569       N  0.68358867  0.05685458  0.70179210    -0.39500
N3570       N  0.74967579  0.06203293  0.72511899    -0.37200
N3571       N  0.70730306  0.41786907  0.75069074    -0.38200
N3572       N  0.63229214  0.43062502  0.73681356    -0.39900
C3573       C  0.72488670  0.07352860  0.76870359    -0.04800
C3574       C  0.74631796  0.07799992  0.77880334     0.09300
C3575       C  0.76683731  0.05661052  0.78090975    -0.02200
C3576       C  0.76699518  0.03130254  0.77240582    -0.00500
C3577       C  0.74592095  0.02639970  0.76137966    -0.04100
C3578       C  0.72297153  0.04728608  0.76110520     0.02900
C3579       C  0.74494759  0.10389586  0.78834868     0.09800
C3580       C  0.78870573  0.06136668  0.79163310     0.35700
C3581       C  0.69474867  0.04145566  0.75537351     0.39100
C3582       C  0.72556492  0.10388539  0.79975064    -0.04400
C3583       C  0.72351508  0.12819976  0.80864271     0.02700
C3584       C  0.74106635  0.15286458  0.80633868    -0.04000
C3585       C  0.75810186  0.15390272  0.79400629    -0.00300
C3586       C  0.76081571  0.12919161  0.78536176    -0.02800
C3587       C  0.70723804  0.07891464  0.80216849     0.36400
C3588       C  0.77197653  0.18057017  0.78977983     0.40000
C3589       C  0.70153097  0.12845822  0.81943327     0.39200
C3590       C  0.78002055  0.13001042  0.77338730     0.36100
C3591       C  0.70365135  0.09593362  0.76663543     0.36800
C3592       C  0.79017104  0.01159159  0.77518548     0.40000
N3593       N  0.68332449  0.12815629  0.82770282    -0.38000
N3594       N  0.69242925  0.05914222  0.80401757    -0.39600
N3595       N  0.78252000  0.20193575  0.78612176    -0.37400
N3596       N  0.79569739  0.13143837  0.76397114    -0.39800
N3597       N  0.80623172  0.06528168  0.80009522    -0.39500
N3598       N  0.80935854  0.99751225  0.77850685    -0.37200
N3599       N  0.67147948  0.03794884  0.75145312    -0.38200
N3600       N  0.68690140  0.11387463  0.76506012    -0.39900
C3601       C  0.77416055  0.42226612  0.76790941    -0.04800
C3602       C  0.75251608  0.41574606  0.77762247     0.09300
C3603       C  0.73073244  0.43580128  0.77992049    -0.02200
C3604       C  0.72945278  0.46166413  0.77199205    -0.00500
C3605       C  0.75010041  0.46818510  0.76106468    -0.04100
C3606       C  0.77426345  0.44873538  0.76047119     0.02900
C3607       C  0.75521196  0.38992863  0.78710925     0.09800
C3608       C  0.70875488  0.42907585  0.79028290     0.35700
C3609       C  0.80193228  0.45665145  0.75467120     0.39100
C3610       C  0.76984320  0.39291606  0.80002570    -0.04400
C3611       C  0.77233483  0.36928041  0.80925192     0.02700
C3612       C  0.75839174  0.34262425  0.80620388    -0.04000
C3613       C  0.74590886  0.33901752  0.79259134    -0.00300
C3614       C  0.74410278  0.36266178  0.78319972    -0.02800
C3615       C  0.78217333  0.42070618  0.80387393     0.36400
C3616       C  0.73508011  0.31112012  0.78800135     0.40000
C3617       C  0.79153743  0.37211712  0.82119395     0.39200
C3618       C  0.73032754  0.35899425  0.76959303     0.36100
C3619       C  0.79765885  0.40211500  0.76625796     0.36800
C3620       C  0.70518027  0.47995723  0.77491720     0.40000
N3621       N  0.80784877  0.37528685  0.83027684    -0.38000
N3622       N  0.79171584  0.44300383  0.80687639    -0.39600
N3623       N  0.72660440  0.28890527  0.78417813    -0.37400
N3624       N  0.71925929  0.35563873  0.75877643    -0.39800
N3625       N  0.69120806  0.42354473  0.79847737    -0.39500
N3626       N  0.68507539  0.49282952  0.77811658    -0.37200
N3627       N  0.82484811  0.46201886  0.75075973    -0.38200
N3628       N  0.81639468  0.38615068  0.76498010    -0.39900
C3629       C  0.61110834  0.26380309  0.09070928    -0.04800
C3630       C  0.62296764  0.27064017  0.07745037     0.09300
C3631       C  0.65216408  0.27828310  0.07649197    -0.02200
C3632       C  0.66926197  0.27995790  0.08871350    -0.00500
C3633       C  0.65824471  0.27078792  0.10197973    -0.04100
C3634       C  0.62866499  0.26335915  0.10288126     0.02900
C3635       C  0.60464458  0.27116613  0.06446355     0.09800
C3636       C  0.66480129  0.28369967  0.06274612     0.35700
C3637       C  0.61593345  0.25480231  0.11616631     0.39100
C3638       C  0.59910936  0.29770285  0.05775886    -0.04400
C3639       C  0.58356339  0.29828416  0.04503908     0.02700
C3640       C  0.57149288  0.27266383  0.03953586    -0.04000
C3641       C  0.57670386  0.24615243  0.04625222    -0.00300
C3642       C  0.59386846  0.24529177  0.05848983    -0.02800
C3643       C  0.60880807  0.32451104  0.06416641     0.36400
C3644       C  0.56392562  0.21988582  0.04064569     0.40000
C3645       C  0.57947641  0.32530184  0.03771076     0.39200
C3646       C  0.60030522  0.21784315  0.06496211     0.36100
C3647       C  0.58078336  0.25683310  0.09177274     0.36800
C3648       C  0.69806076  0.29174697  0.08740370     0.40000
N3649       N  0.57643750  0.34682442  0.03180358    -0.38000
N3650       N  0.61650438  0.34584584  0.06933493    -0.39600
N3651       N  0.55358000  0.19907328  0.03610202    -0.37400
N3652       N  0.60534341  0.19593685  0.07014800    -0.39800
N3653       N  0.67458223  0.28777693  0.05171856    -0.39500
N3654       N  0.72084303  0.30136644  0.08598426    -0.37200
N3655       N  0.60523569  0.24812575  0.12667109    -0.38200
N3656       N  0.55663328  0.25110719  0.09257328    -0.39900
C3657       C  0.84095987  0.22186972  0.07526355    -0.04800
C3658       C  0.87074752  0.22530196  0.07677277     0.09300
C3659       C  0.88274552  0.22984877  0.09022657    -0.02200
C3660       C  0.86491087  0.23212553  0.10218262    -0.00500
C3661       C  0.83454071  0.23064458  0.10070702    -0.04100
C3662       C  0.82283024  0.22498135  0.08702442     0.02900
C3663       C  0.88927550  0.22668028  0.06397933     0.09800
C3664       C  0.91363478  0.23287183  0.09164717     0.35700
C3665       C  0.79212130  0.22272371  0.08462429     0.39100
C3666       C  0.89783974  0.25378909  0.05868755    -0.04400
C3667       C  0.91568352  0.25547629  0.04676363     0.02700
C3668       C  0.92469695  0.23005131  0.03994781    -0.04000
C3669       C  0.91528589  0.20294869  0.04495408    -0.00300
C3670       C  0.89797948  0.20124725  0.05709812    -0.02800
C3671       C  0.88867878  0.27993177  0.06573699     0.36400
C3672       C  0.92407070  0.17684556  0.03778995     0.40000
C3673       C  0.92516482  0.28337965  0.04164746     0.39200
C3674       C  0.88982885  0.17339743  0.06278117     0.36100
C3675       C  0.82891327  0.21556494  0.06144065     0.36800
C3676       C  0.87831592  0.23693482  0.11580839     0.40000
N3677       N  0.93259929  0.30571962  0.03760737    -0.38000
N3678       N  0.88142334  0.30066389  0.07146768    -0.39600
N3679       N  0.93110744  0.15602708  0.03206862    -0.37400
N3680       N  0.88347081  0.15117166  0.06736420    -0.39800
N3681       N  0.93825866  0.23540905  0.09269128    -0.39500
N3682       N  0.88940055  0.24051909  0.12660637    -0.37200
N3683       N  0.76775346  0.22138711  0.08235557    -0.38200
N3684       N  0.81932641  0.21026489  0.05046275    -0.39900
C3685       C  0.64123348  0.23449923  0.92645875    -0.04800
C3686       C  0.61895303  0.25466960  0.92673763     0.09300
C3687       C  0.61286963  0.27090611  0.91457772    -0.02200
C3688       C  0.62990273  0.26790615  0.90233059    -0.00500
C3689       C  0.65292810  0.24818313  0.90211605    -0.04100
C3690       C  0.65766639  0.23077842  0.91415584     0.02900
C3691       C  0.60179945  0.25848007  0.93992040     0.09800
C3692       C  0.58927878  0.29103283  0.91484780     0.35700
C3693       C  0.67898734  0.20834739  0.91395849     0.39100
C3694       C  0.60746025  0.28198539  0.94903684    -0.04400
C3695       C  0.59157427  0.28524256  0.96157833     0.02700
C3696       C  0.57008098  0.26491028  0.96507814    -0.04000
C3697       C  0.56513304  0.24086057  0.95618443    -0.00300
C3698       C  0.58066961  0.23787904  0.94355542    -0.02800
C3699       C  0.62932532  0.30304256  0.94535025     0.36400
C3700       C  0.54386662  0.21924773  0.96001860     0.40000
C3701       C  0.59687775  0.30977980  0.97074776     0.39200
C3702       C  0.57452358  0.21396308  0.93409990     0.36100
C3703       C  0.64760829  0.21798929  0.93904158     0.36800
C3704       C  0.62426929  0.28601101  0.89025125     0.40000
N3705       N  0.60114622  0.32923515  0.97814499    -0.38000
N3706       N  0.64666112  0.31989457  0.94230854    -0.39600
N3707       N  0.52699064  0.20194719  0.96309058    -0.37400
N3708       N  0.56963946  0.19498234  0.92649786    -0.39800
N3709       N  0.57040646  0.30701882  0.91524578    -0.39500
N3710       N  0.61948610  0.30059567  0.88068293    -0.37200
N3711       N  0.69560754  0.19006573  0.91421765    -0.38200
N3712       N  0.65255678  0.20506602  0.94915145    -0.39900
C3713       C  0.84056810  0.25701419  0.93105013    -0.04800
C3714       C  0.86957675  0.24986364  0.92977847     0.09300
C3715       C  0.88117645  0.24354358  0.91646692    -0.02200
C3716       C  0.86378927  0.24446952  0.90427148    -0.00500
C3717       C  0.83403146  0.25086416  0.90534931    -0.04100
C3718       C  0.82273533  0.25734242  0.91905124     0.02900
C3719       C  0.88787313  0.24827747  0.94263564     0.09800
C3720       C  0.91105095  0.23521356  0.91547110     0.35700
C3721       C  0.79275057  0.26425567  0.92125613     0.39100
C3722       C  0.88804757  0.22284118  0.95073617    -0.04400
C3723       C  0.90644590  0.22070607  0.96243400     0.02700
C3724       C  0.92381027  0.24441908  0.96636940    -0.04000
C3725       C  0.92268760  0.27031579  0.95866023    -0.00300
C3726       C  0.90507597  0.27208666  0.94665227    -0.02800
C3727       C  0.86958886  0.19876057  0.94688419     0.36400
C3728       C  0.94010934  0.29487832  0.96299020     0.40000
C3729       C  0.90852362  0.19379953  0.97008185     0.39200
C3730       C  0.90506319  0.29812638  0.93825528     0.36100
C3731       C  0.82899092  0.26348607  0.94491858     0.36800
C3732       C  0.87697913  0.23808472  0.89080516     0.40000
N3733       N  0.91047628  0.17237832  0.97619344    -0.38000
N3734       N  0.85473774  0.17960177  0.94385972    -0.39600
N3735       N  0.95401366  0.31439643  0.96652296    -0.37400
N3736       N  0.90524051  0.31884755  0.93151072    -0.39800
N3737       N  0.93482509  0.22840498  0.91484479    -0.39500
N3738       N  0.88806332  0.23311914  0.88017569    -0.37200
N3739       N  0.76891786  0.26958219  0.92331595    -0.38200
N3740       N  0.81993233  0.26849832  0.95600253    -0.39900
C3741       C  0.87850988  0.51853446  0.28393227    -0.04800
C3742       C  0.85569900  0.99611802  0.28637835     0.09300
C3743       C  0.85638687  0.97586034  0.29742153    -0.02200
C3744       C  0.88107565  0.97320967  0.30591273    -0.00500
C3745       C  0.90481491  0.99216205  0.30418802    -0.04100
C3746       C  0.90256352  0.51613698  0.29294747     0.02900
C3747       C  0.82994174  0.99753004  0.27678984     0.09800
C3748       C  0.83172329  0.95735282  0.30002106     0.35700
C3749       C  0.92788810  0.53345288  0.29013063     0.39100
C3750       C  0.82451881  0.48033714  0.26627456    -0.04400
C3751       C  0.79987854  0.47986817  0.25757656     0.02700
C3752       C  0.77832743  0.99751695  0.25966014    -0.04000
C3753       C  0.78612471  0.02143255  0.26878011    -0.00300
C3754       C  0.81123410  0.02096664  0.27728257    -0.02800
C3755       C  0.84631359  0.45825057  0.26477998     0.36400
C3756       C  0.76808829  0.04639523  0.27061063     0.40000
C3757       C  0.80174259  0.46013428  0.24572435     0.39200
C3758       C  0.81713433  0.04416378  0.28725049     0.36100
C3759       C  0.87878888  0.53926997  0.27251952     0.36800
C3760       C  0.88264706  0.94943056  0.31574845     0.40000
N3761       N  0.80509942  0.44474279  0.23625770    -0.38000
N3762       N  0.86358837  0.44068468  0.26357334    -0.39600
N3763       N  0.75564309  0.06734370  0.27289108    -0.37400
N3764       N  0.82172639  0.06263915  0.29518661    -0.39800
N3765       N  0.81233043  0.94230547  0.30222537    -0.39500
N3766       N  0.88364066  0.92987937  0.32325182    -0.37200
N3767       N  0.94803637  0.54703526  0.28741016    -0.38200
N3768       N  0.87881383  0.55601088  0.26350838    -0.39900
C3769       C  0.69524412  0.49635253  0.28499172    -0.04800
C3770       C  0.66960133  0.99408363  0.27929982     0.09300
C3771       C  0.66726186  0.99188076  0.26460476    -0.02200
C3772       C  0.69208824  0.99136408  0.25594204    -0.00500
C3773       C  0.72072224  0.99387868  0.26182052    -0.04100
C3774       C  0.72063025  0.49573650  0.27680897     0.02900
C3775       C  0.64317093  0.99450882  0.28845069     0.09800
C3776       C  0.63880341  0.99155685  0.25832344     0.35700
C3777       C  0.74648937  0.49190992  0.28499053     0.39100
C3778       C  0.63385135  0.02034924  0.29484368    -0.04400
C3779       C  0.60990508  0.02016548  0.30395407     0.02700
C3780       C  0.59444792  0.99437812  0.30648342    -0.04000
C3781       C  0.60323552  0.47292767  0.30049683    -0.00300
C3782       C  0.62671202  0.47186121  0.29112651    -0.02800
C3783       C  0.64951596  0.04707043  0.29268778     0.36400
C3784       C  0.59005342  0.44639132  0.30542107     0.40000
C3785       C  0.60224897  0.04628784  0.31147761     0.39200
C3786       C  0.63661789  0.44432089  0.28585898     0.36100
C3787       C  0.69674942  0.49695542  0.30033812     0.36800
C3788       C  0.68681077  0.99086935  0.24087529     0.40000
N3789       N  0.59622409  0.06705809  0.31752847    -0.38000
N3790       N  0.66150654  0.06884938  0.29144534    -0.39600
N3791       N  0.57987155  0.42514122  0.30945929    -0.37400
N3792       N  0.64470774  0.42238415  0.28170732    -0.39800
N3793       N  0.61612848  0.99143568  0.25334798    -0.39500
N3794       N  0.68035086  0.99048544  0.22909233    -0.37200
N3795       N  0.76578729  0.48842070  0.29244966    -0.38200
N3796       N  0.69786047  0.49742636  0.31252547    -0.39900
C3797       C  0.72592764  0.10286255  0.20399638    -0.04800
C3798       C  0.74332543  0.10435441  0.21611749     0.09300
C3799       C  0.75822517  0.13021413  0.21925259    -0.02200
C3800       C  0.75660230  0.15409193  0.21002455    -0.00500
C3801       C  0.74060989  0.15203057  0.19725806    -0.04100
C3802       C  0.72477615  0.12623679  0.19456728     0.02900
C3803       C  0.74538038  0.07871016  0.22571458     0.09800
C3804       C  0.77515186  0.13224609  0.23207820     0.35700
C3805       C  0.70649103  0.12341699  0.18224094     0.39100
C3806       C  0.76913477  0.06050496  0.22514110    -0.04400
C3807       C  0.77072153  0.03568506  0.23382690     0.02700
C3808       C  0.74738555  0.02732320  0.24304561    -0.04000
C3809       C  0.72525781  0.04892516  0.24455752    -0.00300
C3810       C  0.72354882  0.07283020  0.23537820    -0.02800
C3811       C  0.79112823  0.06622452  0.21464261     0.36400
C3812       C  0.70624452  0.05083919  0.25653485     0.40000
C3813       C  0.79644323  0.01875532  0.23224713     0.39200
C3814       C  0.69909959  0.09208878  0.23603034     0.36100
C3815       C  0.70858853  0.07731704  0.20126559     0.36800
C3816       C  0.77174228  0.18047010  0.21378834     0.40000
N3817       N  0.81797765  0.00726376  0.23024871    -0.38000
N3818       N  0.80838462  0.07053269  0.20613346    -0.39600
N3819       N  0.69100602  0.05432143  0.26597278    -0.37400
N3820       N  0.67950071  0.10716171  0.23652690    -0.39800
N3821       N  0.78867037  0.13389073  0.24229772    -0.39500
N3822       N  0.78367118  0.20146620  0.21701626    -0.37200
N3823       N  0.69187761  0.12038524  0.17247203    -0.38200
N3824       N  0.69415538  0.05745075  0.19893261    -0.39900
C3825       C  0.74719687  0.44420877  0.21879308    -0.04800
C3826       C  0.74342373  0.41768819  0.22562015     0.09300
C3827       C  0.73868209  0.41748214  0.24017506    -0.02200
C3828       C  0.74162783  0.44309511  0.24819339    -0.00500
C3829       C  0.74462545  0.47105711  0.24157175    -0.04100
C3830       C  0.74492074  0.47053161  0.22631897     0.02900
C3831       C  0.74411492  0.38998163  0.21734138     0.09800
C3832       C  0.73125651  0.39042717  0.24699984     0.35700
C3833       C  0.74065142  0.49549557  0.21754787     0.39100
C3834       C  0.76692263  0.37035753  0.21903449    -0.04400
C3835       C  0.76842620  0.34543258  0.21046657     0.02700
C3836       C  0.74817583  0.34091028  0.19961174    -0.04000
C3837       C  0.72422370  0.35924728  0.19867597    -0.00300
C3838       C  0.72207704  0.38352194  0.20757116    -0.02800
C3839       C  0.78925157  0.37601562  0.22936241     0.36400
C3840       C  0.70105159  0.35227494  0.18897730     0.40000
C3841       C  0.79041396  0.32428102  0.21306653     0.39200
C3842       C  0.69727580  0.40205476  0.20660820     0.36100
C3843       C  0.75352949  0.44431906  0.20377390     0.36800
C3844       C  0.74399003  0.43900481  0.26328703     0.40000
N3845       N  0.80761203  0.30727861  0.21562288    -0.38000
N3846       N  0.80714262  0.38016110  0.23761204    -0.39600
N3847       N  0.68237600  0.34639653  0.18141733    -0.37400
N3848       N  0.67758533  0.41695351  0.20583942    -0.39800
N3849       N  0.72516545  0.36892530  0.25241047    -0.39500
N3850       N  0.74611830  0.43320555  0.27509353    -0.37200
N3851       N  0.73677378  0.51406483  0.20969443    -0.38200
N3852       N  0.75869229  0.44428088  0.19184430    -0.39900
C3853       C  0.74798380  0.99704733  0.25144186    -0.01800
N3854       N  0.99646395  0.75740285  0.97966920    -0.36000
N3855       N  0.95170114  0.75403238  0.00147132    -0.56500
N3856       N  0.99625663  0.74970999  0.02239834    -0.35900
N3857       N  0.53707651  0.73076891  0.00093164    -0.56500
C3858       C  0.97300865  0.76354062  0.97193202     0.27600
C3859       C  0.51179990  0.72506599  0.97235982     0.27600
C3860       C  0.97291579  0.75102173  0.03087017     0.27600
C3861       C  0.52045099  0.72348686  0.03063759     0.27600
C3862       C  0.93485282  0.75303599  0.98990429     0.36300
C3863       C  0.93473731  0.74740992  0.01256640     0.36300
C3864       C  0.55150912  0.73719445  0.98901078     0.36300
C3865       C  0.55475141  0.73721679  0.01182375     0.36300
C3866       C  0.98143219  0.77244263  0.95857653    -0.21200
C3867       C  0.50154885  0.71507325  0.95947299    -0.21200
C3868       C  0.98151527  0.75656980  0.04460245    -0.21200
C3869       C  0.51431584  0.71305955  0.04398347    -0.21200
C3870       C  0.90681744  0.74653418  0.99370315    -0.22300
C3871       C  0.90676654  0.74290474  0.00808464    -0.22300
C3872       C  0.57885452  0.74714003  0.99232651    -0.22300
C3873       C  0.58083552  0.74732644  0.00682385    -0.22300
C3874       C  0.94418520  0.75860432  0.97599771    -0.17600
C3875       C  0.54083518  0.73223385  0.97523704    -0.17600
C3876       C  0.54790415  0.73262048  0.02614828    -0.17600
C3877       C  0.94401683  0.74660845  0.02674547    -0.17600
H3878       H  0.96783875  0.77811798  0.94977719     0.15300
H3879       H  0.51382160  0.71005372  0.95012869     0.15300
H3880       H  0.96809514  0.75855272  0.05384925     0.15300
H3881       H  0.52927433  0.70882411  0.05244060     0.15300
H3882       H  0.88834034  0.74460194  0.98683155     0.13600
H3883       H  0.88827372  0.73770455  0.01450539     0.13600
H3884       H  0.59566032  0.75342534  0.98507579     0.13600
H3885       H  0.59942966  0.75372149  0.01296402     0.13600
H3886       H  0.99637547  0.74648718  0.98915921     0.26800
H3887       H  0.99660306  0.74258041  0.01205366     0.26800
C3888       C  0.74812946  0.99893256  0.75089655    -0.01800
C3889       C  0.49651690  0.75220280  0.75052459    -0.01800
N3890       N  0.73334945  0.99586483  0.98132451    -0.36000
N3891       N  0.74116807  0.54031031  0.00111089    -0.56500
N3892       N  0.73832777  0.99741134  0.02373975    -0.35900
N3893       N  0.74077353  0.95230234  0.00261527    -0.56500
C3894       C  0.73618625  0.51593610  0.97272069     0.27600
C3895       C  0.72898343  0.97151459  0.97372614     0.27600
C3896       C  0.74321218  0.52111544  0.03086288     0.27600
C3897       C  0.73677634  0.97363167  0.03190473     0.27600
C3898       C  0.74279887  0.55656068  0.98935798     0.36300
C3899       C  0.74500717  0.55841450  0.01210625     0.36300
C3900       C  0.74714074  0.93642272  0.99114846     0.36300
C3901       C  0.74970944  0.93716630  0.01384905     0.36300
C3902       C  0.72543147  0.50424428  0.96031810    -0.21200
C3903       C  0.71629376  0.97830938  0.96093855    -0.21200
C3904       C  0.73570449  0.51203043  0.04430468    -0.21200
C3905       C  0.72815663  0.98123884  0.04538197    -0.21200
C3906       C  0.74736824  0.58522619  0.99289840    -0.22300
C3907       C  0.74848847  0.58644010  0.00737564    -0.22300
C3908       C  0.76004815  0.91090169  0.99509662    -0.22300
C3909       C  0.76149221  0.91128957  0.00956831    -0.22300
C3910       C  0.73864126  0.54576474  0.97558017    -0.17600
C3911       C  0.73937993  0.94395536  0.97730861    -0.17600
C3912       C  0.74544703  0.94570469  0.02790687    -0.17600
C3913       C  0.74319712  0.55008082  0.02633476    -0.17600
H3914       H  0.71602214  0.51570465  0.95156411     0.15300
H3915       H  0.71079685  0.96367751  0.95242119     0.15300
H3916       H  0.72782161  0.52495022  0.05295557     0.15300
H3917       H  0.72555111  0.96726289  0.05440973     0.15300
H3918       H  0.74925731  0.60337942  0.98582522     0.13600
H3919       H  0.75140255  0.60571479  0.01368934     0.13600
H3920       H  0.76716795  0.89363439  0.98829268     0.13600
H3921       H  0.76999906  0.89443503  0.01617916     0.13600
H3922       H  0.74618627  0.99775871  0.99024472     0.26800
H3923       H  0.74771575  0.99865981  0.01384950     0.26800
O3924       O  0.82309226  0.75611787  0.87824958    -0.74600
O3925       O  0.78725244  0.74730915  0.89372416    -0.53500
C3926       C  0.81344383  0.75296076  0.89092244     0.79100
O3927       O  0.74870030  0.82909547  0.82970100    -0.59200
O3928       O  0.74855360  0.79371552  0.81291951    -0.52300
C3929       C  0.74984341  0.82050947  0.81673883     0.71100
O3930       O  0.74453952  0.82898768  0.87768241    -0.73800
O3931       O  0.74684845  0.79221322  0.89355679    -0.54400
C3932       C  0.74613203  0.81896728  0.89034378     0.77100
O3933       O  0.82620505  0.74959213  0.83049376    -0.58900
O3934       O  0.79162510  0.74645256  0.81342981    -0.52100
C3935       C  0.81807075  0.74817409  0.81752683     0.73700
Zr3936     Zr  0.80499530  0.74874055  0.85401283     2.54700
O3937       O  0.84621165  0.78126017  0.85342404    -0.79500
O3938       O  0.83670052  0.70753729  0.85566002    -0.92900
Zr3939     Zr  0.74441655  0.80889423  0.85355007     2.64700
O3940       O  0.77943049  0.84755013  0.85648711    -0.97900
O3941       O  0.70485465  0.84261412  0.85212702    -0.79900
O3942       O  0.77508164  0.77960990  0.86720500    -0.83300
O3943       O  0.77545492  0.77899031  0.84008896    -2.18000
O3944       O  0.74499665  0.66680602  0.83074530    -0.66700
O3945       O  0.74279348  0.70073792  0.81363532    -0.51200
C3946       C  0.74316340  0.67412369  0.81776595     0.72100
O3947       O  0.66531649  0.74107046  0.87784204    -0.59600
O3948       O  0.70111710  0.74756845  0.89378265    -0.51600
C3949       C  0.67474689  0.74280882  0.89065851     0.73900
O3950       O  0.66448112  0.74894539  0.83014029    -0.71000
O3951       O  0.69952711  0.74971293  0.81324740    -0.49700
C3952       C  0.67303457  0.74950457  0.81727287     0.75300
O3953       O  0.74502667  0.66707857  0.87768837    -0.66300
O3954       O  0.74451854  0.70411342  0.89350575    -0.53500
C3955       C  0.74473605  0.67716949  0.89038155     0.73700
Zr3956     Zr  0.74404843  0.68811564  0.85394994     2.77500
O3957       O  0.69886631  0.66157543  0.85494113    -0.97100
O3958       O  0.77495942  0.64622555  0.85303596    -0.77900
Zr3959     Zr  0.68450830  0.74759484  0.85374727     2.70100
O3960       O  0.64886683  0.70911559  0.85187592    -0.79100
O3961       O  0.64847997  0.78504245  0.85542532    -0.98200
Zr3962     Zr  0.74444274  0.74834189  0.88016717     2.21500
Zr3963     Zr  0.74544162  0.74792074  0.82596243     2.11100
O3964       O  0.71461580  0.71782271  0.83983039    -2.46900
O3965       O  0.71352629  0.71722393  0.86751060    -0.78900
O3966       O  0.77511149  0.71787170  0.84018440    -0.71100
O3967       O  0.71367803  0.77914414  0.86726227    -2.32100
O3968       O  0.77547782  0.71758281  0.86741812    -2.28300
O3969       O  0.71459333  0.77799010  0.83975988    -0.72900
H3970       H  0.78768366  0.79083871  0.83423644     0.79100
H3971       H  0.70193815  0.79055873  0.87347848     0.80200
H3972       H  0.70270731  0.70596875  0.83377069     0.82400
H3973       H  0.78711196  0.70604095  0.87360723     0.80000
H3974       H  0.69222147  0.83749161  0.86013097     0.43100
H3975       H  0.65560844  0.80050962  0.84914731     0.42000
H3976       H  0.63040677  0.71913907  0.85060478     0.41700
H3977       H  0.69249836  0.65947931  0.84503047     0.39700
H3978       H  0.79222809  0.65206708  0.85845848     0.42800
H3979       H  0.85491871  0.71426667  0.85138884     0.37600
H3980       H  0.83787190  0.80072256  0.85423506     0.43700
H3981       H  0.79674694  0.84049957  0.85160654     0.40100
H3982       H  0.70437509  0.64197794  0.85784372     0.45000
H3983       H  0.82882023  0.69344704  0.84878042     0.43700
H3984       H  0.77218150  0.86346370  0.85059879     0.43900
H3985       H  0.63152611  0.77696350  0.85044883     0.44200
O3986       O  0.82391577  0.74064741  0.17274110    -0.74600
O3987       O  0.78882717  0.74354023  0.18949987    -0.53500
C3988       C  0.81527746  0.74195823  0.18560223     0.79100
O3989       O  0.75733511  0.82796111  0.12587494    -0.59200
O3990       O  0.75203752  0.79211421  0.10954864    -0.52300
C3991       C  0.75639642  0.81851618  0.11307638     0.71100
O3992       O  0.75026506  0.82749439  0.17331392    -0.73800
O3993       O  0.74573084  0.79196624  0.18981055    -0.54400
C3994       C  0.74742071  0.81859576  0.18607996     0.77100
O3995       O  0.82270919  0.73198414  0.12491285    -0.58900
O3996       O  0.78741146  0.74067433  0.10896023    -0.52100
C3997       C  0.81341736  0.73433497  0.11210877     0.73700
Zr3998     Zr  0.80376563  0.73947546  0.14898469     2.54700
O3999       O  0.84229370  0.77499925  0.14716647    -0.79500
O4000       O  0.83712702  0.69955353  0.15063420    -0.92900
Zr4001     Zr  0.75305048  0.80743639  0.14956600     2.64700
O4002       O  0.79716145  0.83584779  0.15098259    -0.97900
O4003       O  0.72280204  0.84975915  0.14927297    -0.79900
O4004       O  0.77856047  0.77331386  0.16316295    -0.83300
O4005       O  0.77903716  0.77418881  0.13565821    -2.18000
O4006       O  0.73233596  0.66776655  0.12472342    -0.66700
O4007       O  0.73784142  0.70444073  0.10907516    -0.51200
C4008       C  0.73375673  0.67778756  0.11208067     0.72100
O4009       O  0.66395061  0.75403156  0.17241768    -0.59600
O4010       O  0.69840442  0.74982933  0.18940619    -0.51600
C4011       C  0.67207547  0.75180143  0.18534589     0.73900
O4012       O  0.66406269  0.76054049  0.12490546    -0.71000
O4013       O  0.70023679  0.75556669  0.10903297    -0.49700
C4014       C  0.67368524  0.75950865  0.11216208     0.75300
O4015       O  0.73421356  0.66695049  0.17209990    -0.66300
O4016       O  0.73795102  0.70159189  0.18900611    -0.53500
C4017       C  0.73529302  0.67509993  0.18507052     0.73700
Zr4018     Zr  0.73506340  0.68789278  0.14862683     2.77500
O4019       O  0.69065238  0.65992664  0.14852647    -0.97100
O4020       O  0.76582920  0.64584795  0.14856281    -0.77900
Zr4021     Zr  0.68429580  0.75617880  0.14878725     2.70100
O4022       O  0.64185648  0.72546823  0.14774262    -0.79100
O4023       O  0.65603482  0.79983527  0.15083216    -0.98200
Zr4024     Zr  0.74362614  0.74700914  0.17645303     2.21500
Zr4025     Zr  0.74406811  0.74824167  0.12235876     2.11100
O4026       O  0.70909134  0.72172124  0.13514346    -2.46900
O4027       O  0.70918648  0.72146034  0.16244182    -0.78900
O4028       O  0.76988195  0.71322888  0.13527398    -0.71100
O4029       O  0.71812857  0.78158890  0.16280952    -2.32100
O4030       O  0.76969066  0.71308002  0.16253135    -2.28300
O4031       O  0.71826968  0.78300693  0.13552814    -0.72900
H4032       H  0.79247518  0.78412995  0.12960568     0.79100
H4033       H  0.70753239  0.79452379  0.16880553     0.80200
H4034       H  0.69584459  0.71190426  0.12884845     0.82400
H4035       H  0.77979815  0.69982603  0.16852074     0.80000
H4036       H  0.70308032  0.84191403  0.14829333     0.43100
H4037       H  0.65556302  0.80792909  0.14119494     0.42000
H4038       H  0.64802799  0.70816653  0.14247715     0.41700
H4039       H  0.67800586  0.67021234  0.15519489     0.39700
H4040       H  0.77996951  0.64951285  0.15617318     0.42800
H4041       H  0.82893407  0.68676694  0.15795632     0.37600
H4042       H  0.83949749  0.78798563  0.15533987     0.43700
H4043       H  0.79160735  0.85531848  0.14782158     0.40100
H4044       H  0.68198299  0.66331602  0.13915359     0.45000
H4045       H  0.85460546  0.70793542  0.15502532     0.43700
H4046       H  0.80105977  0.83810081  0.16119102     0.43900
H4047       H  0.63621139  0.79283866  0.15251321     0.44200
O4048       O  0.99704766  0.92365484  0.67385457    -0.74600
O4049       O  0.99746712  0.95992776  0.69024328    -0.53500
C4050       C  0.99691517  0.93308575  0.68663308     0.79100
O4051       O  0.57700961  0.50322210  0.62436317    -0.59200
O4052       O  0.54148416  0.49443527  0.60854649    -0.52300
C4053       C  0.56762256  0.50017960  0.61157374     0.71100
O4054       O  0.57712951  0.49397876  0.67243344    -0.73800
O4055       O  0.54205852  0.49658113  0.68907424    -0.54400
C4056       C  0.56859072  0.49390633  0.68533338     0.77100
O4057       O  0.99993711  0.92053690  0.62623507    -0.58900
O4058       O  0.99883984  0.95649733  0.60990408    -0.52100
C4059       C  0.99932951  0.92978012  0.61341614     0.73700
Zr4060     Zr  0.99857759  0.94259449  0.64988819     2.54700
O4061       O  0.51925070  0.89977343  0.64826714    -0.79500
O4062       O  0.95866696  0.90839089  0.64904495    -0.92900
Zr4063     Zr  0.55802983  0.49641313  0.64858978     2.64700
O4064       O  0.58341803  0.94841130  0.64679919    -0.97900
O4065       O  0.60050128  0.52699950  0.65080733    -0.79900
O4066       O  0.52429955  0.96906863  0.66239792    -0.83300
O4067       O  0.52468567  0.96690676  0.63516234    -2.18000
O4068       O  0.91785274  0.50008163  0.62415691    -0.66700
O4069       O  0.95453054  0.50689087  0.60888961    -0.51200
C4070       C  0.92796689  0.50281779  0.61155847     0.72100
O4071       O  0.99755396  0.58415522  0.67327666    -0.59600
O4072       O  0.99671070  0.54872722  0.68992888    -0.51600
C4073       C  0.99714777  0.57544623  0.68616983     0.73900
O4074       O  0.00254420  0.58483803  0.62556512    -0.71000
O4075       O  0.99986722  0.54803334  0.60961346    -0.49700
C4076       C  0.00198079  0.57483439  0.61284390     0.75300
O4077       O  0.91497448  0.50579390  0.67153692    -0.66300
O4078       O  0.94894386  0.50668431  0.68875426    -0.53500
C4079       C  0.92249315  0.50701403  0.68455691     0.73700
Zr4080     Zr  0.93659313  0.50581844  0.64834635     2.77500
O4081       O  0.90764450  0.54902507  0.64656462    -0.97100
O4082       O  0.89893886  0.96879261  0.64874264    -0.77900
Zr4083     Zr  0.99963882  0.56419671  0.64941605     2.70100
O4084       O  0.96695082  0.60471837  0.64868808    -0.79100
O4085       O  0.54339470  0.59189309  0.64959928    -0.98200
Zr4086     Zr  0.99573023  0.50328536  0.67670974     2.21500
Zr4087     Zr  0.99718639  0.50366109  0.62259768     2.11100
O4088       O  0.96784539  0.53593612  0.63539450    -2.46900
O4089       O  0.96741978  0.53488132  0.66264142    -0.78900
O4090       O  0.96856572  0.97119022  0.63561338    -0.71100
O4091       O  0.52988528  0.52915451  0.66211788    -2.32100
O4092       O  0.96787942  0.97352673  0.66285048    -2.28300
O4093       O  0.53095271  0.52819866  0.63464903    -0.72900
H4094       H  0.53428207  0.95352818  0.62900860     0.79100
H4095       H  0.54228132  0.54063386  0.66812445     0.80200
H4096       H  0.95704581  0.54809224  0.62912363     0.82400
H4097       H  0.95567686  0.96198474  0.66885143     0.80000
H4098       H  0.61677895  0.51414088  0.64871716     0.43100
H4099       H  0.55786584  0.58315886  0.64331365     0.42000
H4100       H  0.97920153  0.62176468  0.65074968     0.41700
H4101       H  0.91962537  0.56447626  0.65083249     0.39700
H4102       H  0.90808588  0.94976942  0.64760604     0.42800
H4103       H  0.95018886  0.90888422  0.65859856     0.37600
H4104       H  0.50531878  0.88359031  0.64760676     0.43700
H4105       H  0.57076878  0.93457237  0.65178366     0.40100
H4106       H  0.90712276  0.55368221  0.63639441     0.45000
H4107       H  0.96779573  0.88927169  0.64837826     0.43700
H4108       H  0.58224849  0.94253610  0.63677051     0.43900
H4109       H  0.53754031  0.60972247  0.64472603     0.44200
O4110       O  0.57970506  0.50455084  0.32949732    -0.74600
O4111       O  0.54495022  0.49871239  0.31263015    -0.53500
C4112       C  0.57126822  0.50086408  0.31670787     0.79100
O4113       O  0.01089376  0.91961778  0.37528523    -0.59200
O4114       O  0.00652770  0.95642325  0.39108225    -0.52300
C4115       C  0.00967234  0.92958899  0.38796899     0.71100
O4116       O  0.00632533  0.91850801  0.32793499    -0.73800
O4117       O  0.00045081  0.95288724  0.31110870    -0.54400
C4118       C  0.00251701  0.92650095  0.31506665     0.77100
O4119       O  0.57685594  0.51798388  0.37708957    -0.58900
O4120       O  0.54144331  0.50647217  0.39239998    -0.52100
C4121       C  0.56714219  0.51454747  0.38975260     0.73700
Zr4122     Zr  0.55888802  0.50924998  0.35281381     2.54700
O4123       O  0.59108109  0.95709053  0.35368404    -0.79500
O4124       O  0.58951692  0.55170279  0.35026075    -0.92900
Zr4125     Zr  0.00969072  0.93999587  0.35147211     2.64700
O4126       O  0.53628084  0.90391080  0.35357746    -0.97900
O4127       O  0.98352632  0.89472842  0.35281277    -0.79900
O4128       O  0.52737975  0.96656428  0.33915967    -0.83300
O4129       O  0.52686168  0.96662921  0.36655194    -2.18000
O4130       O  0.99883206  0.58152000  0.37501359    -0.66700
O4131       O  0.99910804  0.54537903  0.39127022    -0.51200
C4132       C  0.00021035  0.57202828  0.38771934     0.72100
O4133       O  0.91626976  0.49703748  0.32843074    -0.59600
O4134       O  0.95135924  0.49748474  0.31166101    -0.51600
C4135       C  0.92484783  0.49712917  0.31551013     0.73900
O4136       O  0.91630268  0.50019739  0.37651200    -0.71000
O4137       O  0.95292012  0.50159251  0.39240926    -0.49700
C4138       C  0.92621636  0.50144390  0.38924234     0.75300
O4139       O  0.98744547  0.57880616  0.32796065    -0.66300
O4140       O  0.99309694  0.54311258  0.31159972    -0.53500
C4141       C  0.98868506  0.56952711  0.31519496     0.73700
Zr4142     Zr  0.99482662  0.55999023  0.35152859     2.77500
O4143       O  0.95851774  0.59731940  0.35273682    -0.97100
O4144       O  0.52364017  0.60173881  0.35095797    -0.77900
Zr4145     Zr  0.93585875  0.49742302  0.35235556     2.70100
O4146       O  0.89716831  0.53212344  0.35117848    -0.79100
O4147       O  0.91318138  0.94616687  0.35267040    -0.98200
Zr4148     Zr  0.99635970  0.49823966  0.32482804     2.21500
Zr4149     Zr  0.99582407  0.50022526  0.37860084     2.11100
O4150       O  0.96462820  0.53015724  0.36545969    -2.46900
O4151       O  0.96518762  0.52805717  0.33832762    -0.78900
O4152       O  0.52499128  0.53592681  0.36575327    -0.71100
O4153       O  0.97431665  0.96428524  0.33801761    -2.32100
O4154       O  0.52561737  0.53434109  0.33832690    -2.28300
O4155       O  0.97505267  0.96500069  0.36501030    -0.72900
H4156       H  0.53783505  0.95481022  0.37290627     0.79100
H4157       H  0.96357259  0.95087338  0.33221703     0.80200
H4158       H  0.95301804  0.54199065  0.37154632     0.82400
H4159       H  0.53599716  0.54717358  0.33214073     0.80000
H4160       H  0.96367817  0.90061215  0.35502669     0.43100
H4161       H  0.89370390  0.95161302  0.34958068     0.42000
H4162       H  0.90602434  0.54943382  0.34686584     0.41700
H4163       H  0.94347803  0.58939292  0.35901530     0.39700
H4164       H  0.51299938  0.61677695  0.34581132     0.42800
H4165       H  0.60850133  0.54559056  0.35378281     0.37600
H4166       H  0.60852645  0.96451447  0.34893519     0.43700
H4167       H  0.54663110  0.90865644  0.36241510     0.40100
H4168       H  0.96744407  0.61324758  0.35821071     0.45000
H4169       H  0.58252652  0.56534002  0.35750376     0.43700
H4170       H  0.52731735  0.88486982  0.35540077     0.43900
H4171       H  0.92078633  0.93406120  0.34495498     0.44200
N4172       N  0.49312051  0.75160253  0.52193028    -0.36000
N4173       N  0.49536105  0.70556432  0.50107131    -0.56500
N4174       N  0.48041568  0.74780041  0.48005718    -0.35900
N4175       N  0.47811670  0.79370668  0.50084836    -0.56500
C4176       C  0.50554819  0.73037560  0.52950173     0.27600
C4177       C  0.49641494  0.77633625  0.52944752     0.27600
C4178       C  0.47677106  0.72323697  0.47248488     0.27600
C4179       C  0.46944239  0.76939967  0.47223351     0.27600
C4180       C  0.50081706  0.68940291  0.51255162     0.36300
C4181       C  0.49511888  0.68759481  0.48983613     0.36300
C4182       C  0.47700004  0.81145512  0.51213858     0.36300
C4183       C  0.47301681  0.80993642  0.48934595     0.36300
C4184       C  0.51706729  0.74179938  0.54181177    -0.21200
C4185       C  0.51136477  0.77072702  0.54177106    -0.21200
C4186       C  0.46291773  0.72938101  0.45990013    -0.21200
C4187       C  0.45851168  0.75849126  0.45970564    -0.21200
C4188       C  0.50376467  0.66079941  0.50860458    -0.22300
C4189       C  0.50117409  0.65983146  0.49416242    -0.22300
C4190       C  0.47008585  0.83903526  0.50780698    -0.22300
C4191       C  0.46858064  0.83827411  0.49332468    -0.22300
C4192       C  0.50472940  0.70049429  0.52635860    -0.17600
C4193       C  0.48502773  0.80368060  0.52601671    -0.17600
C4194       C  0.47098132  0.79910743  0.47542806    -0.17600
C4195       C  0.48734109  0.69563207  0.47596828    -0.17600
H4196       H  0.52810540  0.73032577  0.55008570     0.15300
H4197       H  0.51727664  0.78589328  0.54999434     0.15300
H4198       H  0.45706336  0.71446830  0.45155740     0.15300
H4199       H  0.44863336  0.77039798  0.45122581     0.15300
H4200       H  0.50799869  0.64254869  0.51531751     0.13600
H4201       H  0.50259053  0.64064777  0.48770620     0.13600
H4202       H  0.46758700  0.85804960  0.51429661     0.13600
H4203       H  0.46406306  0.85641895  0.48658768     0.13600
H4204       H  0.47987688  0.74865414  0.51321060     0.26800
H4205       H  0.49317133  0.75037827  0.48896842     0.26800
N4206       N  0.75280068  0.98489997  0.52125082    -0.36000
N4207       N  0.70741755  0.98602633  0.50051093    -0.56500
N4208       N  0.75068809  0.98193542  0.47859431    -0.35900
N4209       N  0.79594930  0.97845511  0.49932523    -0.56500
C4210       C  0.72951289  0.98110905  0.52956333     0.27600
C4211       C  0.77597005  0.97748615  0.52895444     0.27600
C4212       C  0.72651842  0.97772919  0.47095869     0.27600
C4213       C  0.77296710  0.97448189  0.47028980     0.27600
C4214       C  0.69184926  0.99278800  0.51202844     0.36300
C4215       C  0.69072954  0.99140413  0.48920590     0.36300
C4216       C  0.81360950  0.98203010  0.51047560     0.36300
C4217       C  0.81245730  0.98077568  0.48770680     0.36300
C4218       C  0.73800287  0.97124711  0.54268103    -0.21200
C4219       C  0.76730066  0.96917325  0.54233886    -0.21200
C4220       C  0.73354355  0.96746270  0.45765967    -0.21200
C4221       C  0.76285101  0.96562257  0.45720337    -0.21200
C4222       C  0.66495567  0.00226351  0.50805357    -0.22300
C4223       C  0.66425157  0.00141281  0.49354360    -0.22300
C4224       C  0.84164445  0.98584317  0.50596101    -0.22300
C4225       C  0.84090940  0.98505455  0.49147690    -0.22300
C4226       C  0.70102643  0.98834495  0.52603685    -0.17600
C4227       C  0.80486564  0.98033981  0.52466252    -0.17600
C4228       C  0.80226074  0.97764476  0.47378524    -0.17600
C4229       C  0.69855737  0.98557330  0.47511204    -0.17600
H4230       H  0.72454259  0.96657571  0.55168974     0.15300
H4231       H  0.78063449  0.96262492  0.55107414     0.15300
H4232       H  0.71910164  0.96257050  0.44901419     0.15300
H4233       H  0.77525970  0.95897943  0.44814819     0.15300
H4234       H  0.64758330  0.00870063  0.51489374     0.13600
H4235       H  0.64621590  0.00708264  0.48695301     0.13600
H4236       H  0.86062647  0.98863835  0.51242234     0.13600
H4237       H  0.85920155  0.98714400  0.48453149     0.13600
H4238       H  0.75329150  0.99554477  0.51164766     0.26800
H4239       H  0.75213473  0.99299068  0.48809323     0.26800
C4240       C  0.99373310  0.74717872  0.25060192    -0.01800
C4241       C  0.51160629  0.87966504  0.28304307    -0.04800
C4242       C  0.99740346  0.85584165  0.28525506     0.09300
C4243       C  0.98241578  0.85455287  0.29813327    -0.02200
C4244       C  0.98297071  0.87820688  0.30745922    -0.00500
C4245       C  0.99935623  0.90319864  0.30425956    -0.04100
C4246       C  0.51022142  0.90367479  0.29227113     0.02900
C4247       C  0.99723642  0.83018089  0.27557812     0.09800
C4248       C  0.96571601  0.82908583  0.30172499     0.35700
C4249       C  0.52581700  0.92981135  0.28871161     0.39100
C4250       C  0.51957451  0.81014937  0.27599695    -0.04400
C4251       C  0.51915566  0.78467166  0.26764083     0.02700
C4252       C  0.99455332  0.77742974  0.25911859    -0.04000
C4253       C  0.97249920  0.79927286  0.25842257    -0.00300
C4254       C  0.97293640  0.82352318  0.26752369    -0.02800
C4255       C  0.54377727  0.81665463  0.28520703     0.36400
C4256       C  0.95103111  0.80084883  0.24742819     0.40000
C4257       C  0.54410160  0.76655608  0.26914501     0.39200
C4258       C  0.94852961  0.84281998  0.26816398     0.36100
C4259       C  0.52955882  0.88086748  0.27057827     0.36800
C4260       C  0.96455097  0.87748316  0.31977187     0.40000
N4261       N  0.56498980  0.75401038  0.27125500    -0.38000
N4262       N  0.56299567  0.82192419  0.29253929    -0.39600
N4263       N  0.93372667  0.80401779  0.23883387    -0.37400
N4264       N  0.92911136  0.85811031  0.26876530    -0.39800
N4265       N  0.95190335  0.80921505  0.30474306    -0.39500
N4266       N  0.94910108  0.87649603  0.32929190    -0.37200
N4267       N  0.53788266  0.95072600  0.28557820    -0.38200
N4268       N  0.54395603  0.88166457  0.26065728    -0.39900
C4269       C  0.96075461  0.63384769  0.29464487    -0.04800
C4270       C  0.98407280  0.63954428  0.28552265     0.09300
C4271       C  0.51056436  0.61758704  0.28419069    -0.02200
C4272       C  0.50966421  0.59342579  0.29314999    -0.00500
C4273       C  0.98547069  0.59156259  0.30396535    -0.04100
C4274       C  0.96164179  0.61021463  0.30398186     0.02900
C4275       C  0.98508004  0.66686625  0.27698027     0.09800
C4276       C  0.53450773  0.62130209  0.27460881     0.35700
C4277       C  0.93766529  0.60458029  0.31334866     0.39100
C4278       C  0.49531068  0.69207505  0.28297859    -0.04400
C4279       C  0.49345321  0.71817347  0.27537117     0.02700
C4280       C  0.99063891  0.71930187  0.26055384    -0.04000
C4281       C  0.98673313  0.69115652  0.25412778    -0.00300
C4282       C  0.98250651  0.66597610  0.26228188    -0.02800
C4283       C  0.50170159  0.69243625  0.29800747     0.36400
C4284       C  0.99007692  0.68641399  0.23910562     0.40000
C4285       C  0.48891437  0.74332853  0.28410436     0.39200
C4286       C  0.97661213  0.63845313  0.25544867     0.36100
C4287       C  0.93584676  0.65232895  0.29438469     0.36800
C4288       C  0.53115055  0.57125452  0.29173717     0.40000
N4289       N  0.48477491  0.76215854  0.29184564    -0.38000
N4290       N  0.50693591  0.69244638  0.30993749    -0.39600
N4291       N  0.99328948  0.68032486  0.22737829    -0.37400
N4292       N  0.97212033  0.61645928  0.25006185    -0.39800
N4293       N  0.55374859  0.62380199  0.26700690    -0.39500
N4294       N  0.54782021  0.55319162  0.29031725    -0.37200
N4295       N  0.91849081  0.59993048  0.32076174    -0.38200
N4296       N  0.91594541  0.66702469  0.29412865    -0.39900
C4297       C  0.47270471  0.63319104  0.45031393    -0.04800
C4298       C  0.49074454  0.64103146  0.43896471     0.09300
C4299       C  0.50943181  0.66498309  0.44044480    -0.02200
C4300       C  0.51001645  0.68088268  0.45309630    -0.00500
C4301       C  0.49027048  0.67459843  0.46400482    -0.04100
C4302       C  0.47141125  0.65073978  0.46249538     0.02900
C4303       C  0.00842170  0.62581109  0.42439784     0.09800
C4304       C  0.52794547  0.67352938  0.42885861     0.35700
C4305       C  0.45004504  0.64479258  0.47320811     0.39100
C4306       C  0.98332484  0.62728623  0.41599358    -0.04400
C4307       C  0.98039345  0.60960962  0.40393542     0.02700
C4308       C  0.00374475  0.59306741  0.39930848    -0.04000
C4309       C  0.51652575  0.59669441  0.40773469    -0.00300
C4310       C  0.51539410  0.60949046  0.42114576    -0.02800
C4311       C  0.96053554  0.64691183  0.41974045     0.36400
C4312       C  0.54390616  0.58845890  0.40183603     0.40000
C4313       C  0.95320550  0.60782643  0.39652342     0.39200
C4314       C  0.53967699  0.60700221  0.43061933     0.36100
C4315       C  0.97219156  0.61198691  0.44829180     0.36800
C4316       C  0.53055530  0.70434664  0.45471297     0.40000
N4317       N  0.93144673  0.60614987  0.39068015    -0.38000
N4318       N  0.94240281  0.66266417  0.42269067    -0.39600
N4319       N  0.56585048  0.58292615  0.39690142    -0.37400
N4320       N  0.55889110  0.60483377  0.43825968    -0.39800
N4321       N  0.54285768  0.68008943  0.41964713    -0.39500
N4322       N  0.54709160  0.72294249  0.45587240    -0.37200
N4323       N  0.43304164  0.64002726  0.48178409    -0.38200
N4324       N  0.95724594  0.59199541  0.44761093    -0.39900
C4325       C  0.49815755  0.89507775  0.42586489    -0.04800
C4326       C  0.47662542  0.87355401  0.42603683     0.09300
C4327       C  0.99530007  0.86583224  0.41269497    -0.02200
C4328       C  0.99559372  0.88306997  0.40040928    -0.00500
C4329       C  0.01196780  0.90895611  0.40003418    -0.04100
C4330       C  0.50376531  0.91063598  0.41345137     0.02900
C4331       C  0.47414877  0.85402371  0.43859509     0.09800
C4332       C  0.97898216  0.83907458  0.41292066     0.35700
C4333       C  0.52945819  0.92825958  0.41274480     0.39100
C4334       C  0.98535414  0.85763187  0.44693166    -0.04400
C4335       C  0.98429095  0.84059309  0.45925936     0.02700
C4336       C  0.47200413  0.81930097  0.46313569    -0.04000
C4337       C  0.49641179  0.81904077  0.45430447    -0.00300
C4338       C  0.49697252  0.83535314  0.44183647    -0.02800
C4339       C  0.96135068  0.87577400  0.44327694     0.36400
C4340       C  0.52100226  0.80164859  0.45799660     0.40000
C4341       C  0.95843953  0.83968414  0.46771095     0.39200
C4342       C  0.52097527  0.83258141  0.43220664     0.36100
C4343       C  0.51444489  0.90146136  0.43858235     0.36800
C4344       C  0.97845663  0.87419556  0.38837710     0.40000
N4345       N  0.93781548  0.83898139  0.47447549    -0.38000
N4346       N  0.94225322  0.89029625  0.44031327    -0.39600
N4347       N  0.54060828  0.78783311  0.46096738    -0.37400
N4348       N  0.54007846  0.83024845  0.42452578    -0.39800
N4349       N  0.96600491  0.81770491  0.41311290    -0.39500
N4350       N  0.96464492  0.86646161  0.37892888    -0.37200
N4351       N  0.55060190  0.94139284  0.41235579    -0.38200
N4352       N  0.52720990  0.90671775  0.44875846    -0.39900
C4353       C  0.64654172  0.55462914  0.44624268    -0.04800
C4354       C  0.64075444  0.98849361  0.43973137     0.09300
C4355       C  0.63895578  0.96541736  0.44936283    -0.02200
C4356       C  0.65684435  0.96511358  0.46136254    -0.00500
C4357       C  0.67660361  0.98783732  0.46373046    -0.04100
C4358       C  0.66330786  0.55524708  0.45862201     0.02900
C4359       C  0.62166330  0.98921811  0.42706835     0.09800
C4360       C  0.61901592  0.94181948  0.44677672     0.35700
C4361       C  0.67095191  0.58251627  0.46518714     0.39100
C4362       C  0.63387602  0.52319817  0.41353951    -0.04400
C4363       C  0.61661313  0.51945728  0.40137866     0.02700
C4364       C  0.58618291  0.52014947  0.40241063    -0.04000
C4365       C  0.57588912  0.00208419  0.41645564    -0.00300
C4366       C  0.59349828  0.99922950  0.42843180    -0.02800
C4367       C  0.66490618  0.52272386  0.41243917     0.36400
C4368       C  0.54718564  0.01320187  0.41859435     0.40000
C4369       C  0.63061522  0.51374579  0.38803630     0.39200
C4370       C  0.58239197  0.00609125  0.44233842     0.36100
C4371       C  0.63705194  0.58129637  0.43993785     0.36800
C4372       C  0.65565817  0.94105412  0.47106076     0.40000
N4373       N  0.64217667  0.50918185  0.37748606    -0.38000
N4374       N  0.68965917  0.52245535  0.41160712    -0.39600
N4375       N  0.52430935  0.02181387  0.42053124    -0.37400
N4376       N  0.57336223  0.01118111  0.45341827    -0.39800
N4377       N  0.60308705  0.92299825  0.44471202    -0.39500
N4378       N  0.65483401  0.92196635  0.47886724    -0.37200
N4379       N  0.67707480  0.60419661  0.47050318    -0.38200
N4380       N  0.62941970  0.60256187  0.43490429    -0.39900
C4381       C  0.85619494  0.53816769  0.44708654    -0.04800
C4382       C  0.85157052  0.51472766  0.43781836     0.09300
C4383       C  0.84971583  0.95224426  0.44380785    -0.02200
C4384       C  0.83323879  0.95197338  0.45622968    -0.00500
C4385       C  0.82314036  0.97804347  0.46194575    -0.04100
C4386       C  0.83973005  0.54066934  0.45946786     0.02900
C4387       C  0.87012363  0.51112026  0.42514768     0.09800
C4388       C  0.85880507  0.92526743  0.43755185     0.35700
C4389       C  0.84391058  0.56517202  0.46879183     0.39100
C4390       C  0.90451445  0.97132695  0.42549049    -0.04400
C4391       C  0.92224856  0.97268535  0.41353850     0.02700
C4392       C  0.90582652  0.50362666  0.40129094    -0.04000
C4393       C  0.88288108  0.52339975  0.40089079    -0.00300
C4394       C  0.86490847  0.52683982  0.41273588    -0.02800
C4395       C  0.91628623  0.96227178  0.43895010     0.36400
C4396       C  0.87892377  0.54184486  0.38875108     0.40000
C4397       C  0.95096423  0.96137282  0.41476836     0.39200
C4398       C  0.84163749  0.54733077  0.41236684     0.36100
C4399       C  0.87786419  0.55968545  0.44379763     0.36800
C4400       C  0.82595258  0.92487719  0.46295593     0.40000
N4401       N  0.97361539  0.95210852  0.41644684    -0.38000
N4402       N  0.92555670  0.95504097  0.44967897    -0.39600
N4403       N  0.87577660  0.55692624  0.37919905    -0.37400
N4404       N  0.82322562  0.56385712  0.41211390    -0.39800
N4405       N  0.86627429  0.90376569  0.43263053    -0.39500
N4406       N  0.82013522  0.90327845  0.46834253    -0.37200
N4407       N  0.84730578  0.58468871  0.47625424    -0.38200
N4408       N  0.89509674  0.57683322  0.44103465    -0.39900
C4409       C  0.59517131  0.51513263  0.57415745    -0.04800
C4410       C  0.62528248  0.99047446  0.57474150     0.09300
C4411       C  0.63485221  0.98056066  0.58794930    -0.02200
C4412       C  0.61717357  0.98298411  0.60004130    -0.00500
C4413       C  0.58763114  0.50396928  0.59927567    -0.04100
C4414       C  0.57681577  0.51276020  0.58585577     0.02900
C4415       C  0.64454025  0.98979433  0.56210012     0.09800
C4416       C  0.66301137  0.96771318  0.58899546     0.35700
C4417       C  0.54697655  0.52017997  0.58369273     0.39100
C4418       C  0.65198072  0.54175180  0.55873902    -0.04400
C4419       C  0.66834717  0.54517372  0.54639622     0.02700
C4420       C  0.67976643  0.98996804  0.53781290    -0.04000
C4421       C  0.66072104  0.96671323  0.54031405    -0.00300
C4422       C  0.64289726  0.96679085  0.55233597    -0.02800
C4423       C  0.64391477  0.56680047  0.56695892     0.36400
C4424       C  0.66018616  0.94232566  0.53071236     0.40000
C4425       C  0.67759126  0.57367605  0.54198244     0.39200
C4426       C  0.62288478  0.94321142  0.55467516     0.36100
C4427       C  0.58367412  0.52216938  0.56033464     0.36800
C4428       C  0.62803834  0.97294237  0.61346108     0.40000
N4429       N  0.68526952  0.59632182  0.53848278    -0.38000
N4430       N  0.63751890  0.58679524  0.57351777    -0.39600
N4431       N  0.65996157  0.92293037  0.52301199    -0.37400
N4432       N  0.60685281  0.92439588  0.55645538    -0.39800
N4433       N  0.68548051  0.95744130  0.58969953    -0.39500
N4434       N  0.63712950  0.96517099  0.62413660    -0.37200
N4435       N  0.52344756  0.52620266  0.58132556    -0.38200
N4436       N  0.57462484  0.52759735  0.54930172    -0.39900
C4437       C  0.85438962  0.53416829  0.55498648    -0.04800
C4438       C  0.85542209  0.50713166  0.56170190     0.09300
C4439       C  0.85282859  0.95941831  0.55513857    -0.02200
C4440       C  0.83671397  0.95721778  0.54262554    -0.00500
C4441       C  0.82686298  0.98237175  0.53597909    -0.04100
C4442       C  0.83841914  0.53735125  0.54250492     0.02900
C4443       C  0.87288117  0.50376608  0.57471908     0.09800
C4444       C  0.86223131  0.93358886  0.56227704     0.35700
C4445       C  0.83650432  0.56530783  0.53581862     0.39100
C4446       C  0.86168919  0.51138100  0.58798142    -0.04400
C4447       C  0.87905933  0.50990814  0.60015902     0.02700
C4448       C  0.90821640  0.50150799  0.59904970    -0.04000
C4449       C  0.92511512  0.98845366  0.58451127    -0.00300
C4450       C  0.90756242  0.98634285  0.57248376    -0.02800
C4451       C  0.83241778  0.52153646  0.58897407     0.36400
C4452       C  0.95565417  0.98407957  0.58239938     0.40000
C4453       C  0.86689212  0.51834332  0.61360605     0.39200
C4454       C  0.92010081  0.98135723  0.55865235     0.36100
C4455       C  0.86948728  0.55871645  0.56107104     0.36800
C4456       C  0.82987429  0.92918887  0.53664447     0.40000
N4457       N  0.85689093  0.52499992  0.62427877    -0.38000
N4458       N  0.80913848  0.52981740  0.58972004    -0.39600
N4459       N  0.97980904  0.98030765  0.58038278    -0.37400
N4460       N  0.92980005  0.97740400  0.54759724    -0.39800
N4461       N  0.86982320  0.91302038  0.56797655    -0.39500
N4462       N  0.82454105  0.90685749  0.53179799    -0.37200
N4463       N  0.83495748  0.58761645  0.53048336    -0.38200
N4464       N  0.88151856  0.57821271  0.56600664    -0.39900
C4465       C  0.52961038  0.62726992  0.58604354    -0.04800
C4466       C  0.01220897  0.62722306  0.57565492     0.09300
C4467       C  0.98923292  0.60734667  0.57670728    -0.02200
C4468       C  0.98468452  0.59204159  0.58930080    -0.00500
C4469       C  0.00401209  0.59510717  0.60074725    -0.04100
C4470       C  0.52815828  0.60914211  0.59796318     0.02900
C4471       C  0.50963174  0.64405363  0.56261421     0.09800
C4472       C  0.97013401  0.60261647  0.56478859     0.35700
C4473       C  0.54970226  0.61178273  0.60894268     0.39100
C4474       C  0.53165408  0.64355155  0.55239190    -0.04400
C4475       C  0.53078517  0.66247896  0.54075267     0.02700
C4476       C  0.50665895  0.68020054  0.53861803    -0.04000
C4477       C  0.99693821  0.68097668  0.54647741    -0.00300
C4478       C  0.99492974  0.66549158  0.55913683    -0.02800
C4479       C  0.55496903  0.62329295  0.55375917     0.36400
C4480       C  0.97432649  0.70084101  0.54275998     0.40000
C4481       C  0.55485502  0.66398149  0.53112698     0.39200
C4482       C  0.97196184  0.67167133  0.56898164     0.36100
C4483       C  0.55140614  0.64970084  0.58535059     0.36800
C4484       C  0.95945532  0.57374693  0.59052242     0.40000
N4485       N  0.57409692  0.66510212  0.52345242    -0.38000
N4486       N  0.57352686  0.60707999  0.55487618    -0.39600
N4487       N  0.95634067  0.71672588  0.53981713    -0.37400
N4488       N  0.95380426  0.67669074  0.57689478    -0.39800
N4489       N  0.95476316  0.59893539  0.55534769    -0.39500
N4490       N  0.93891394  0.55969866  0.59126703    -0.37200
N4491       N  0.56700198  0.61398874  0.61764787    -0.38200
N4492       N  0.56892848  0.66748524  0.58483031    -0.39900
C4493       C  0.97994511  0.89332406  0.57876282    -0.04800
C4494       C  0.48188988  0.88007563  0.57489396     0.09300
C4495       C  0.50636736  0.87833477  0.58369973    -0.02200
C4496       C  0.50782668  0.89444844  0.59632143    -0.00500
C4497       C  0.99964229  0.90851573  0.60159698    -0.04100
C4498       C  0.97697896  0.90796408  0.59173260     0.02900
C4499       C  0.48040361  0.86269048  0.56152432     0.09800
C4500       C  0.52991346  0.85969952  0.57986980     0.35700
C4501       C  0.94953303  0.92002565  0.59554180     0.39100
C4502       C  0.49902658  0.86886455  0.55015809    -0.04400
C4503       C  0.50080248  0.84971612  0.53858256     0.02700
C4504       C  0.48245743  0.82530337  0.53779004    -0.04000
C4505       C  0.98775865  0.81958436  0.54756498    -0.00300
C4506       C  0.98602092  0.83594015  0.56010070    -0.02800
C4507       C  0.51634056  0.89499003  0.55039952     0.36400
C4508       C  0.96547014  0.79859282  0.54426053     0.40000
C4509       C  0.52235862  0.85447782  0.52781579     0.39200
C4510       C  0.96360066  0.82940891  0.57022590     0.36100
C4511       C  0.95834342  0.89680268  0.56789165     0.36800
C4512       C  0.53377334  0.89454904  0.60478394     0.40000
N4513       N  0.53952503  0.85825310  0.51920294    -0.38000
N4514       N  0.52998549  0.91594659  0.55055396    -0.39600
N4515       N  0.94746488  0.78213376  0.54158707    -0.37400
N4516       N  0.94557876  0.82418818  0.57822102    -0.39800
N4517       N  0.54863042  0.84471651  0.57684147    -0.39500
N4518       N  0.55436465  0.89476410  0.61161108    -0.37200
N4519       N  0.92721586  0.92846890  0.59875889    -0.38200
N4520       N  0.94121412  0.89967569  0.55918128    -0.39900
C4521       C  0.60125954  0.73226778  0.20297693    -0.04800
C4522       C  0.60030021  0.75203378  0.21432575     0.09300
C4523       C  0.62395974  0.77076049  0.21668151    -0.02200
C4524       C  0.64808645  0.77005599  0.20762391    -0.00500
C4525       C  0.64866681  0.75072465  0.19606497    -0.04100
C4526       C  0.62538416  0.73136146  0.19404670     0.02900
C4527       C  0.57497467  0.75176938  0.22420463     0.09800
C4528       C  0.62334833  0.79094537  0.22838009     0.35700
C4529       C  0.62663526  0.70960625  0.18303038     0.39100
C4530       C  0.57125259  0.72893044  0.23364782    -0.04400
C4531       C  0.54688308  0.72726888  0.24253875     0.02700
C4532       C  0.52373817  0.74790844  0.24148042    -0.04000
C4533       C  0.52975639  0.77242790  0.23254161    -0.00300
C4534       C  0.55478405  0.77395474  0.22405374    -0.02800
C4535       C  0.59359580  0.70729045  0.23454536     0.36400
C4536       C  0.50942207  0.79554604  0.23064005     0.40000
C4537       C  0.54911621  0.70589121  0.25359271     0.39200
C4538       C  0.55917845  0.79804253  0.21452461     0.36100
C4539       C  0.57735641  0.71270197  0.20040400     0.36800
C4540       C  0.67200717  0.78958461  0.21011712     0.40000
N4541       N  0.55266246  0.68905968  0.26238378    -0.38000
N4542       N  0.61133388  0.69009495  0.23527513    -0.39600
N4543       N  0.99980023  0.81625573  0.22926817    -0.37400
N4544       N  0.56260759  0.81730925  0.20698653    -0.39800
N4545       N  0.62272208  0.80723583  0.23763689    -0.39500
N4546       N  0.69106514  0.80511941  0.21229576    -0.37200
N4547       N  0.62763783  0.69207411  0.17434598    -0.38200
N4548       N  0.55860110  0.69680772  0.19819871    -0.39900
C4549       C  0.87862177  0.76757406  0.20780171    -0.04800
C4550       C  0.88651271  0.74206033  0.21489821     0.09300
C4551       C  0.87019222  0.71660559  0.21259924    -0.02200
C4552       C  0.84610172  0.71677724  0.20348661    -0.00500
C4553       C  0.83815817  0.74236199  0.19654969    -0.04100
C4554       C  0.85472418  0.76764606  0.19863308     0.02900
C4555       C  0.91351773  0.74146231  0.22374055     0.09800
C4556       C  0.87936743  0.68981064  0.21889629     0.35700
C4557       C  0.84778096  0.79360022  0.19089181     0.39100
C4558       C  0.91225304  0.73953606  0.23847528    -0.04400
C4559       C  0.93761062  0.74109158  0.24678919     0.02700
C4560       C  0.96582164  0.74433909  0.24050978    -0.04000
C4561       C  0.96619789  0.74280055  0.22521914    -0.00300
C4562       C  0.94042916  0.74246816  0.21720377    -0.02800
C4563       C  0.88433263  0.73700806  0.24517752     0.36400
C4564       C  0.99181710  0.73872040  0.21688410     0.40000
C4565       C  0.93333375  0.74194600  0.26194487     0.39200
C4566       C  0.94142703  0.74217838  0.20185156     0.36100
C4567       C  0.89610619  0.79343061  0.20920359     0.36800
C4568       C  0.83078977  0.69015031  0.20041108     0.40000
N4569       N  0.92818774  0.74274107  0.27387208    -0.38000
N4570       N  0.86210448  0.73481487  0.25049813    -0.39600
N4571       N  0.51036295  0.73311421  0.20926827    -0.37400
N4572       N  0.94204888  0.74201984  0.18965571    -0.39800
N4573       N  0.88690715  0.66845877  0.22387843    -0.39500
N4574       N  0.81881809  0.66882780  0.19781289    -0.37200
N4575       N  0.84218670  0.81432702  0.18477085    -0.38200
N4576       N  0.91014488  0.81407338  0.20993691    -0.39900
C4577       C  0.76234105  0.60384957  0.05506984    -0.04800
C4578       C  0.73543244  0.60687071  0.06169604     0.09300
C4579       C  0.71070669  0.59417252  0.05559763    -0.02200
C4580       C  0.71299253  0.57840009  0.04299771    -0.00500
C4581       C  0.74027545  0.57264693  0.03733777    -0.04100
C4582       C  0.76496538  0.58562610  0.04327896     0.02900
C4583       C  0.73306709  0.62379049  0.07500465     0.09800
C4584       C  0.68310905  0.59652146  0.06253039     0.35700
C4585       C  0.79305722  0.57948229  0.03752681     0.39100
C4586       C  0.71899690  0.65041085  0.07490143    -0.04400
C4587       C  0.71720453  0.66683046  0.08732126     0.02700
C4588       C  0.73091962  0.65757798  0.09987901    -0.04000
C4589       C  0.74431160  0.63029234  0.10001565    -0.00300
C4590       C  0.74517901  0.61342902  0.08762447    -0.02800
C4591       C  0.70734015  0.66152220  0.06179970     0.36400
C4592       C  0.75851248  0.61986776  0.11258281     0.40000
C4593       C  0.70193764  0.69379932  0.08676760     0.39200
C4594       C  0.75939254  0.58573775  0.08770223     0.36100
C4595       C  0.78722210  0.61941770  0.06043565     0.36800
C4596       C  0.68743431  0.56727138  0.03605762     0.40000
N4597       N  0.68988467  0.71530318  0.08573106    -0.38000
N4598       N  0.69805198  0.67035558  0.05137187    -0.39600
N4599       N  0.76995624  0.61106170  0.12247953    -0.37400
N4600       N  0.77096610  0.56379690  0.08767450    -0.39800
N4601       N  0.66113282  0.59833892  0.06809764    -0.39500
N4602       N  0.66703748  0.55867520  0.03042484    -0.37200
N4603       N  0.81548066  0.57441193  0.03299183    -0.38200
N4604       N  0.80693429  0.63204006  0.06471262    -0.39900
C4605       C  0.77329746  0.84713343  0.07665973    -0.04800
C4606       C  0.75712510  0.87252612  0.07650645     0.09300
C4607       C  0.74329241  0.88201374  0.08884915    -0.02200
C4608       C  0.74455592  0.86542916  0.10122956    -0.00500
C4609       C  0.75982988  0.83923785  0.10129419    -0.04100
C4610       C  0.77545153  0.83107895  0.08913448     0.02900
C4611       C  0.75492543  0.88960300  0.06333900     0.09800
C4612       C  0.72682511  0.90837169  0.08859079     0.35700
C4613       C  0.79451468  0.80666416  0.08945674     0.39100
C4614       C  0.72958589  0.88834492  0.05520643    -0.04400
C4615       C  0.72691650  0.90583446  0.04321354     0.02700
C4616       C  0.74972256  0.92426290  0.03926885    -0.04000
C4617       C  0.77550043  0.92456905  0.04705148    -0.00300
C4618       C  0.77789650  0.90767967  0.05925163    -0.02800
C4619       C  0.70587676  0.86997666  0.05955172     0.36400
C4620       C  0.79930029  0.94268804  0.04260450     0.40000
C4621       C  0.70036805  0.90578623  0.03522817     0.39200
C4622       C  0.80333968  0.90996848  0.06802097     0.36100
C4623       C  0.78675867  0.83692598  0.06380302     0.36800
C4624       C  0.72918363  0.87504615  0.11361999     0.40000
N4625       N  0.67919172  0.90587881  0.02885380    -0.38000
N4626       N  0.68687924  0.85556206  0.06313108    -0.39600
N4627       N  0.81832965  0.95702161  0.03898908    -0.37400
N4628       N  0.82346153  0.91195855  0.07512610    -0.39800
N4629       N  0.71351287  0.92926458  0.08826594    -0.39500
N4630       N  0.71690032  0.88327190  0.12340229    -0.37200
N4631       N  0.81030074  0.78763656  0.08944698    -0.38200
N4632       N  0.79722887  0.82861836  0.05352741    -0.39900
C4633       C  0.76220235  0.58400501  0.94201449    -0.04800
C4634       C  0.73942977  0.60321555  0.93973619     0.09300
C4635       C  0.71641030  0.60412707  0.94937572    -0.02200
C4636       C  0.71577334  0.58522341  0.96102096    -0.00500
C4637       C  0.73875612  0.56614749  0.96336713    -0.04100
C4638       C  0.76215959  0.56600257  0.95391530     0.02900
C4639       C  0.74004981  0.62245775  0.92711319     0.09800
C4640       C  0.69359416  0.62471846  0.94732028     0.35700
C4641       C  0.78645801  0.54748907  0.95653327     0.39100
C4642       C  0.72305897  0.61594135  0.91518576    -0.04400
C4643       C  0.72441903  0.63364968  0.90311468     0.02700
C4644       C  0.74444590  0.65673076  0.90248843    -0.04000
C4645       C  0.76276087  0.66181549  0.91417369    -0.00300
C4646       C  0.75935697  0.64593680  0.92668416    -0.02800
C4647       C  0.70439713  0.59076800  0.91532924     0.36400
C4648       C  0.78658692  0.68187121  0.91307671     0.40000
C4649       C  0.70444460  0.62848857  0.89165646     0.39200
C4650       C  0.77564239  0.65382751  0.93919305     0.36100
C4651       C  0.78560651  0.58262315  0.93197448     0.36800
C4652       C  0.69132444  0.58507860  0.97043936     0.40000
N4653       N  0.68803791  0.62399910  0.88273883    -0.38000
N4654       N  0.68971142  0.57053583  0.91548201    -0.39600
N4655       N  0.80639593  0.69692985  0.91232848    -0.37400
N4656       N  0.78835167  0.66026789  0.94922714    -0.39800
N4657       N  0.67553906  0.64128783  0.94562198    -0.39500
N4658       N  0.67175771  0.58497655  0.97793001    -0.37200
N4659       N  0.80587060  0.53278613  0.95865486    -0.38200
N4660       N  0.80416606  0.58164382  0.92390801    -0.39900
C4661       C  0.72136242  0.86897166  0.91951096    -0.04800
C4662       C  0.74534392  0.86835613  0.92865640     0.09300
C4663       C  0.77011199  0.85325142  0.92455251    -0.02200
C4664       C  0.77144568  0.84032427  0.91113379    -0.00500
C4665       C  0.74687506  0.83914846  0.90244629    -0.04100
C4666       C  0.72180630  0.85357395  0.90665312     0.02900
C4667       C  0.74557750  0.88590568  0.94193196     0.09800
C4668       C  0.79415348  0.85089125  0.93419879     0.35700
C4669       C  0.69638159  0.85222966  0.89784935     0.39100
C4670       C  0.72715590  0.87892091  0.95327468    -0.04400
C4671       C  0.72496078  0.89781354  0.96489929     0.02700
C4672       C  0.74289862  0.92244383  0.96574208    -0.04000
C4673       C  0.76333275  0.92773079  0.95509667    -0.00300
C4674       C  0.76380545  0.91032896  0.94295979    -0.02800
C4675       C  0.71063966  0.85229670  0.95299859     0.36400
C4676       C  0.78378176  0.95129605  0.95662107     0.40000
C4677       C  0.70375253  0.89249418  0.97578343     0.39200
C4678       C  0.78254916  0.91810334  0.93135462     0.36100
C4679       C  0.69633749  0.88562615  0.92328080     0.36800
C4680       C  0.79863880  0.82996151  0.90588422     0.40000
N4681       N  0.68690909  0.88859496  0.98453839    -0.38000
N4682       N  0.69764660  0.83092923  0.95285049    -0.39600
N4683       N  0.80022763  0.96994200  0.95790033    -0.37400
N4684       N  0.79754452  0.92425471  0.92211221    -0.39800
N4685       N  0.81316001  0.84902725  0.94198684    -0.39500
N4686       N  0.82066849  0.82265347  0.90165462    -0.37200
N4687       N  0.67607464  0.85111830  0.89083430    -0.38200
N4688       N  0.67642359  0.89896046  0.92632133    -0.39900
C4689       C  0.01528525  0.64576844  0.70540975    -0.04800
C4690       C  0.99538160  0.64571167  0.71664817     0.09300
C4691       C  0.52166916  0.63173681  0.71088478    -0.02200
C4692       C  0.52193913  0.60683207  0.70221109    -0.00500
C4693       C  0.99762824  0.59845779  0.69732101    -0.04100
C4694       C  0.01698134  0.62200065  0.69612063     0.02900
C4695       C  0.99406200  0.67124209  0.72660959     0.09800
C4696       C  0.54664228  0.63872678  0.71939424     0.35700
C4697       C  0.03991993  0.62113805  0.68581734     0.39100
C4698       C  0.97029542  0.68955579  0.72674808    -0.04400
C4699       C  0.97066849  0.71558184  0.73473014     0.02700
C4700       C  0.99520095  0.72420608  0.74321868    -0.04000
C4701       C  0.51590453  0.72314447  0.72842758    -0.00300
C4702       C  0.51519391  0.69990819  0.71863037    -0.02800
C4703       C  0.94555045  0.68207817  0.71807497     0.36400
C4704       C  0.53971906  0.74325961  0.72704679     0.40000
C4705       C  0.94605988  0.73396651  0.73273222     0.39200
C4706       C  0.53412643  0.70024361  0.70648023     0.36100
C4707       C  0.03437187  0.67027906  0.70340428     0.36800
C4708       C  0.54811235  0.59050398  0.70074646     0.40000
N4709       N  0.92559834  0.74688547  0.73019684    -0.38000
N4710       N  0.92574005  0.67596005  0.71129412    -0.39600
N4711       N  0.55952324  0.75803150  0.72531674    -0.37400
N4712       N  0.54928775  0.70074811  0.69683419    -0.39800
N4713       N  0.56687091  0.64422644  0.72599142    -0.39500
N4714       N  0.56927232  0.57796688  0.69943279    -0.37200
N4715       N  0.05864406  0.62043863  0.67783956    -0.38200
N4716       N  0.04987764  0.68959208  0.70178445    -0.39900
C4717       C  0.51786541  0.86512727  0.70497399    -0.04800
C4718       C  0.99613764  0.86188946  0.71587243     0.09300
C4719       C  0.97086419  0.86957883  0.70859340    -0.02200
C4720       C  0.97078461  0.89373618  0.69956616    -0.00500
C4721       C  0.99584341  0.91070729  0.69783513    -0.04100
C4722       C  0.51783012  0.89012072  0.69651148     0.02900
C4723       C  0.99692610  0.83482898  0.72466188     0.09800
C4724       C  0.94513712  0.85204327  0.70998357     0.35700
C4725       C  0.54240647  0.89683067  0.68769165     0.39100
C4726       C  0.99749772  0.83641614  0.73939846    -0.04400
C4727       C  0.99850021  0.81106941  0.74772060     0.02700
C4728       C  0.99673766  0.78251651  0.74149338    -0.04000
C4729       C  0.99778176  0.78191126  0.72619434    -0.00300
C4730       C  0.99759574  0.80770725  0.71814482    -0.02800
C4731       C  0.99459136  0.86450422  0.74606833     0.36400
C4732       C  0.45433540  0.76302869  0.72649134     0.40000
C4733       C  0.99820290  0.81574347  0.76283899     0.39200
C4734       C  0.99856537  0.80656628  0.70280884     0.36100
C4735       C  0.54129122  0.84495586  0.70372190     0.36800
C4736       C  0.94478365  0.90124994  0.69205745     0.40000
N4737       N  0.99775178  0.82204492  0.77464938    -0.38000
N4738       N  0.99175363  0.88678273  0.75137297    -0.39600
N4739       N  0.43547891  0.74784548  0.72344775    -0.37400
N4740       N  0.99927211  0.80585047  0.69061788    -0.39800
N4741       N  0.92456902  0.83802835  0.71087797    -0.39500
N4742       N  0.92396391  0.90745241  0.68619702    -0.37200
N4743       N  0.56182777  0.90253289  0.68061637    -0.38200
N4744       N  0.55990780  0.82879510  0.70265465    -0.39900
C4745       C  0.60725286  0.72507398  0.79661150    -0.04800
C4746       C  0.60074072  0.74986188  0.78855366     0.09300
C4747       C  0.61898568  0.77439254  0.78976617    -0.02200
C4748       C  0.64245876  0.77443476  0.79924660    -0.00500
C4749       C  0.64982199  0.74912991  0.80651311    -0.04100
C4750       C  0.63210565  0.72444286  0.80515620     0.02900
C4751       C  0.57438166  0.75016395  0.77913778     0.09800
C4752       C  0.61352210  0.79992294  0.78148666     0.35700
C4753       C  0.63895114  0.69866919  0.81306951     0.39100
C4754       C  0.55114173  0.76835466  0.78205433    -0.04400
C4755       C  0.52722169  0.76975330  0.77274245     0.02700
C4756       C  0.52385513  0.75005187  0.76098648    -0.04000
C4757       C  0.54579076  0.72824110  0.76011064    -0.00300
C4758       C  0.57183202  0.73088867  0.76775281    -0.02800
C4759       C  0.55198714  0.78604502  0.79472074     0.36400
C4760       C  0.54126244  0.70025042  0.75365906     0.40000
C4761       C  0.50750780  0.79318334  0.77518440     0.39200
C4762       C  0.59596624  0.71265245  0.76417020     0.36100
C4763       C  0.58779454  0.70050857  0.79658809     0.36800
C4764       C  0.65709524  0.80126247  0.80267896     0.40000
N4765       N  0.98141317  0.76840280  0.79287744    -0.38000
N4766       N  0.55271279  0.80005582  0.80483463    -0.39600
N4767       N  0.53834026  0.67715224  0.74922186    -0.37400
N4768       N  0.61514799  0.69810317  0.76133938    -0.39800
N4769       N  0.60957657  0.82060798  0.77502807    -0.33500
N4770       N  0.66821064  0.82277418  0.80577134    -0.37200
N4771       N  0.64459749  0.67831814  0.81947557    -0.38200
N4772       N  0.57232477  0.68086623  0.79661890    -0.39900
C4773       C  0.91639609  0.77032682  0.76713808    -0.04800
C4774       C  0.91379087  0.74925451  0.77755795     0.09300
C4775       C  0.93548449  0.72880004  0.77887252    -0.02200
C4776       C  0.96005287  0.72959367  0.77003277    -0.00500
C4777       C  0.96579622  0.75345354  0.76060623    -0.04100
C4778       C  0.94181203  0.77314334  0.75896678     0.02900
C4779       C  0.88837376  0.74924127  0.78744301     0.09800
C4780       C  0.93311485  0.70743995  0.79000257     0.35700
C4781       C  0.93990035  0.79505335  0.74817741     0.39100
C4782       C  0.86754710  0.72691425  0.78699938    -0.04400
C4783       C  0.84494636  0.72617341  0.79695721     0.02700
C4784       C  0.84140782  0.74903454  0.80668556    -0.04000
C4785       C  0.86177465  0.77189487  0.80677248    -0.00300
C4786       C  0.88542579  0.77160787  0.79746570    -0.02800
C4787       C  0.86952425  0.70456118  0.77632983     0.36400
C4788       C  0.85855763  0.79585610  0.81648194     0.40000
C4789       C  0.82730397  0.70046650  0.79810762     0.39200
C4790       C  0.90714621  0.79416153  0.79833987     0.36100
C4791       C  0.89185105  0.78881404  0.76454803     0.36800
C4792       C  0.97971895  0.70595438  0.77189943     0.40000
N4793       N  0.81412892  0.67936887  0.79923827    -0.38000
N4794       N  0.87116745  0.68680779  0.76777915    -0.39600
N4795       N  0.85620220  0.81510080  0.82416751    -0.37400
N4796       N  0.92458055  0.81203985  0.79893297    -0.39800
N4797       N  0.93125457  0.69060081  0.79892718    -0.39500
N4798       N  0.99340189  0.68593765  0.77438410    -0.37200
N4799       N  0.93616316  0.81270933  0.73980743    -0.38200
N4800       N  0.87226700  0.80331035  0.76243065    -0.39900
C4801       C  0.81841292  0.52435196  0.73261692    -0.04800
C4802       C  0.82378813  0.50232885  0.72290752     0.09300
C4803       C  0.80405081  0.97953670  0.72065050    -0.02200
C4804       C  0.77921869  0.97964010  0.72936129    -0.00500
C4805       C  0.77287007  0.50028922  0.74051048    -0.04100
C4806       C  0.79291306  0.52443095  0.74076543     0.02900
C4807       C  0.84968677  0.50428076  0.71343497     0.09800
C4808       C  0.80715215  0.95807111  0.70957987     0.35700
C4809       C  0.78700300  0.55189095  0.74735289     0.39100
C4810       C  0.87640671  0.98367253  0.71567958    -0.04400
C4811       C  0.90092193  0.98587194  0.70690050     0.02700
C4812       C  0.89823567  0.50841970  0.69513443    -0.04000
C4813       C  0.87086747  0.51907765  0.69098541    -0.00300
C4814       C  0.84680066  0.51617570  0.69989923    -0.02800
C4815       C  0.87658920  0.96390198  0.72745462     0.36400
C4816       C  0.86724119  0.53485579  0.67793503     0.40000
C4817       C  0.92582253  0.96851750  0.70996273     0.39200
C4818       C  0.81892357  0.52635142  0.69532360     0.36100
C4819       C  0.83891705  0.54815682  0.73360067     0.36800
C4820       C  0.75902506  0.95620468  0.72701408     0.40000
N4821       N  0.94570744  0.95490352  0.71269563    -0.38000
N4822       N  0.87755439  0.94782312  0.73672981    -0.39600
N4823       N  0.86364961  0.54783192  0.66770403    -0.37400
N4824       N  0.79665880  0.53443247  0.69177348    -0.39800
N4825       N  0.80957263  0.94100195  0.70074965    -0.39500
N4826       N  0.74426552  0.93682616  0.72421905    -0.37200
N4827       N  0.78362603  0.57482457  0.75182846    -0.38200
N4828       N  0.85526211  0.56703082  0.73427996    -0.39900
C4829       C  0.67293913  0.97593997  0.73342809    -0.04800
C4830       C  0.66577424  0.49344955  0.72453065     0.09300
C4831       C  0.68711828  0.51437971  0.72226917    -0.02200
C4832       C  0.71268362  0.51480821  0.73043109    -0.00500
C4833       C  0.71839698  0.49308740  0.74096840    -0.04100
C4834       C  0.69909731  0.97391972  0.74098659     0.02900
C4835       C  0.63967404  0.49212131  0.71516385     0.09800
C4836       C  0.68239880  0.53598454  0.71147127     0.35700
C4837       C  0.70407410  0.94590144  0.74702029     0.39100
C4838       C  0.61326829  0.50417884  0.71928015    -0.04400
C4839       C  0.58947591  0.50382643  0.70993060     0.02700
C4840       C  0.59174554  0.49088210  0.69638150    -0.04000
C4841       C  0.61983899  0.97708466  0.69257128    -0.00300
C4842       C  0.64393621  0.97933160  0.70155061    -0.02800
C4843       C  0.61040378  0.51685903  0.73317677     0.36400
C4844       C  0.62140511  0.95789940  0.68048745     0.40000
C4845       C  0.56289136  0.51695882  0.71440472     0.39200
C4846       C  0.66996791  0.96386694  0.69814415     0.36100
C4847       C  0.65031455  0.95451782  0.73541725     0.36800
C4848       C  0.73155998  0.53928285  0.72810310     0.40000
N4849       N  0.54170745  0.52733230  0.71810581    -0.38000
N4850       N  0.60739678  0.52685646  0.74426149    -0.39600
N4851       N  0.62306694  0.94235521  0.67096712    -0.37400
N4852       N  0.69066375  0.95145858  0.69544447    -0.39800
N4853       N  0.67867044  0.55304038  0.70281035    -0.39500
N4854       N  0.74494239  0.55961371  0.72535823    -0.37200
N4855       N  0.70697286  0.92270714  0.75113958    -0.38200
N4856       N  0.63229116  0.93753165  0.73700123    -0.39900
C4857       C  0.72125317  0.56939142  0.76949206    -0.04800
C4858       C  0.74387936  0.57510809  0.77881720     0.09300
C4859       C  0.76475631  0.55390919  0.78087270    -0.02200
C4860       C  0.76457569  0.52816064  0.77272682    -0.00500
C4861       C  0.74318434  0.52284465  0.76192895    -0.04100
C4862       C  0.71962681  0.54299124  0.76196797     0.02900
C4863       C  0.74279522  0.60111052  0.78835733     0.09800
C4864       C  0.78701728  0.55900765  0.79137767     0.35700
C4865       C  0.69133961  0.53611539  0.75657938     0.39100
C4866       C  0.73357942  0.59748020  0.80231983    -0.04400
C4867       C  0.73343575  0.62097729  0.81177292     0.02700
C4868       C  0.74134635  0.64940797  0.80723169    -0.04000
C4869       C  0.74811914  0.65317882  0.79272402    -0.00300
C4870       C  0.74955137  0.62908005  0.78349534    -0.02800
C4871       C  0.72377524  0.56916541  0.80692337     0.36400
C4872       C  0.75380745  0.68166086  0.78709251     0.40000
C4873       C  0.72482178  0.61476452  0.82614128     0.39200
C4874       C  0.75791566  0.63314340  0.76892465     0.36100
C4875       C  0.69824878  0.59025104  0.76840755     0.36800
C4876       C  0.78751902  0.50827155  0.77570836     0.40000
N4877       N  0.71824742  0.60834101  0.83746207    -0.38000
N4878       N  0.71591683  0.54662120  0.81048892    -0.39600
N4879       N  0.75833283  0.70436709  0.78255751    -0.37400
N4880       N  0.76450795  0.63675409  0.75730477    -0.39800
N4881       N  0.80461231  0.56297992  0.79979931    -0.39500
N4882       N  0.80628626  0.49379025  0.77919771    -0.37200
N4883       N  0.66802155  0.53165330  0.75295514    -0.38200
N4884       N  0.67994149  0.60681330  0.76757705    -0.39900
C4885       C  0.77265420  0.92452118  0.76829991    -0.04800
C4886       C  0.75063239  0.91904802  0.77800327     0.09300
C4887       C  0.73040239  0.94067882  0.78049681    -0.02200
C4888       C  0.73011028  0.96628576  0.77227929    -0.00500
C4889       C  0.75085689  0.97142645  0.76122126    -0.04100
C4890       C  0.77413527  0.95097459  0.76085513     0.02900
C4891       C  0.75159332  0.89255514  0.78725520     0.09800
C4892       C  0.70953468  0.93632832  0.79165891     0.35700
C4893       C  0.80227887  0.95795591  0.75535415     0.39100
C4894       C  0.76923667  0.89273180  0.79932833    -0.04400
C4895       C  0.77004546  0.86859159  0.80837052     0.02700
C4896       C  0.75278086  0.84377872  0.80566910    -0.04000
C4897       C  0.73735655  0.84260102  0.79276102    -0.00300
C4898       C  0.73604041  0.86713660  0.78386833    -0.02800
C4899       C  0.78678490  0.91800258  0.80240561     0.36400
C4900       C  0.72351633  0.81602180  0.78826727     0.40000
C4901       C  0.79062977  0.86875052  0.81981400     0.39200
C4902       C  0.71833158  0.86607865  0.77131630     0.36100
C4903       C  0.79540456  0.90349509  0.76682012     0.36800
C4904       C  0.70699549  0.98605490  0.77518283     0.40000
N4905       N  0.80786766  0.86951531  0.82858817    -0.38000
N4906       N  0.80078368  0.93819258  0.80472428    -0.39600
N4907       N  0.71289650  0.79478371  0.78439095    -0.37400
N4908       N  0.70381253  0.86439363  0.76143959    -0.39800
N4909       N  0.69306401  0.93282954  0.80061705    -0.39500
N4910       N  0.68795354  0.00050979  0.77833325    -0.37200
N4911       N  0.82546053  0.96302458  0.75174945    -0.38200
N4912       N  0.81370866  0.88697958  0.76573852    -0.39900
C4913       C  0.60858265  0.74673081  0.08799183    -0.04800
C4914       C  0.61921646  0.75724026  0.07506823     0.09300
C4915       C  0.64559160  0.77218857  0.07481690    -0.02200
C4916       C  0.66192552  0.77542623  0.08727910    -0.00500
C4917       C  0.65298453  0.76210865  0.10002725    -0.04100
C4918       C  0.62536363  0.74891534  0.10040315     0.02900
C4919       C  0.60293935  0.75172845  0.06165166     0.09800
C4920       C  0.65633362  0.78345982  0.06156926     0.35700
C4921       C  0.61399582  0.73692415  0.11333843     0.39100
C4922       C  0.58610512  0.77355179  0.05558031    -0.04400
C4923       C  0.56924565  0.76753745  0.04354558     0.02700
C4924       C  0.56937992  0.73979609  0.03738163    -0.04000
C4925       C  0.58713176  0.71830300  0.04309276    -0.00300
C4926       C  0.60387762  0.72427506  0.05518996    -0.02800
C4927       C  0.58572741  0.80204980  0.06187112     0.36400
C4928       C  0.58719948  0.68971794  0.03689475     0.40000
C4929       C  0.55080099  0.78955804  0.03776137     0.39200
C4930       C  0.62176556  0.70205361  0.06119280     0.36100
C4931       C  0.58040899  0.73316833  0.08839894     0.36800
C4932       C  0.68774130  0.79298579  0.08689334     0.40000
N4933       N  0.53592161  0.80691904  0.03309827    -0.38000
N4934       N  0.58552797  0.82488389  0.06680175    -0.39600
N4935       N  0.58728986  0.66680976  0.03204417    -0.37400
N4936       N  0.63601720  0.68441854  0.06607679    -0.39800
N4937       N  0.66480290  0.79230096  0.05095583    -0.39500
N4938       N  0.70809078  0.80735547  0.08635688    -0.37200
N4939       N  0.60401353  0.72741256  0.12348410    -0.38200
N4940       N  0.55790730  0.72244467  0.08865577    -0.39900
C4941       C  0.84160273  0.72129138  0.07457745    -0.04800
C4942       C  0.86979493  0.73203943  0.07557673     0.09300
C4943       C  0.88068309  0.74065403  0.08882129    -0.02200
C4944       C  0.86302424  0.73984119  0.10095486    -0.00500
C4945       C  0.83395116  0.73051303  0.09994408    -0.04100
C4946       C  0.82384894  0.72033831  0.08661463     0.02900
C4947       C  0.88766761  0.73531105  0.06252162     0.09800
C4948       C  0.91002121  0.75114836  0.08982232     0.35700
C4949       C  0.79493635  0.70933455  0.08488558     0.39100
C4950       C  0.88926996  0.76218114  0.05561275    -0.04400
C4951       C  0.90672399  0.76562346  0.04357317     0.02700
C4952       C  0.92240638  0.74211116  0.03824457    -0.04000
C4953       C  0.92008718  0.71501070  0.04490429    -0.00300
C4954       C  0.90287703  0.71165246  0.05703691    -0.02800
C4955       C  0.87331649  0.78642578  0.06108833     0.36400
C4956       C  0.93604344  0.69077648  0.03942519     0.40000
C4957       C  0.90950937  0.79363572  0.03698467     0.39200
C4958       C  0.90130995  0.68405159  0.06411004     0.36100
C4959       C  0.83055046  0.71200330  0.06095344     0.36800
C4960       C  0.87478212  0.75001812  0.11423803     0.40000
N4961       N  0.91185398  0.81600197  0.03174332    -0.38000
N4962       N  0.86062731  0.80575566  0.06550296    -0.39600
N4963       N  0.94885904  0.67152148  0.03501951    -0.37400
N4964       N  0.90006027  0.66207156  0.06980257    -0.39800
N4965       N  0.93342160  0.75956296  0.09052002    -0.39500
N4966       N  0.88457828  0.75810272  0.12476348    -0.37200
N4967       N  0.77194677  0.70076713  0.08289390    -0.38200
N4968       N  0.82174162  0.70463352  0.05009859    -0.39900
C4969       C  0.64625395  0.73067270  0.92818526    -0.04800
C4970       C  0.61714712  0.73776846  0.92673869     0.09300
C4971       C  0.60637463  0.74530311  0.91335718    -0.02200
C4972       C  0.62469986  0.74623416  0.90148927    -0.00500
C4973       C  0.65423899  0.73940631  0.90284728    -0.04100
C4974       C  0.66444440  0.73048766  0.91632948     0.02900
C4975       C  0.59771924  0.73651012  0.93932294     0.09800
C4976       C  0.57633035  0.75259726  0.91186627     0.35700
C4977       C  0.69338788  0.72000649  0.91828789     0.39100
C4978       C  0.58701817  0.76210007  0.94537143    -0.04400
C4979       C  0.56825934  0.76073241  0.95701532     0.02700
C4980       C  0.56117025  0.73386140  0.96309317    -0.04000
C4981       C  0.57240631  0.70834585  0.95726012    -0.00300
C4982       C  0.59025528  0.70961761  0.94530268    -0.02800
C4983       C  0.59551775  0.78982330  0.93964305     0.36400
C4984       C  0.56482266  0.68067559  0.96333714     0.40000
C4985       C  0.55573960  0.78690098  0.96256127     0.39200
C4986       C  0.60079806  0.68317854  0.93907215     0.36100
C4987       C  0.65768082  0.72396566  0.94204893     0.36800
C4988       C  0.61274126  0.75450819  0.88799599     0.40000
N4989       N  0.54563058  0.80779536  0.96690446    -0.38000
N4990       N  0.60237669  0.81185364  0.93500287    -0.39600
N4991       N  0.55853846  0.65861086  0.96812048    -0.37400
N4992       N  0.60933838  0.66210420  0.93414329    -0.39800
N4993       N  0.55243883  0.75872379  0.91075925    -0.39500
N4994       N  0.60287316  0.76088949  0.87726445    -0.37200
N4995       N  0.71623835  0.71151813  0.92037265    -0.38200
N4996       N  0.66680396  0.71866499  0.95308243    -0.39900
C4997       C  0.84046016  0.76210902  0.92891902    -0.04800
C4998       C  0.87005025  0.75806733  0.92723069     0.09300
C4999       C  0.88159639  0.75370378  0.91369273    -0.02200
C5000       C  0.86340421  0.75208021  0.90181648    -0.00500
C5001       C  0.83334051  0.75581073  0.90334688    -0.04100
C5002       C  0.82215708  0.76134716  0.91714482     0.02900
C5003       C  0.88890115  0.75810461  0.93990752     0.09800
C5004       C  0.91239304  0.75109396  0.91200531     0.35700
C5005       C  0.79182639  0.76626611  0.91965519     0.39100
C5006       C  0.89974786  0.73191288  0.94510661    -0.04400
C5007       C  0.91732098  0.73201562  0.95715558     0.02700
C5008       C  0.92265556  0.75801393  0.96447496    -0.04000
C5009       C  0.91055027  0.78391553  0.95973659    -0.00300
C5010       C  0.89459365  0.78415247  0.94716221    -0.02800
C5011       C  0.89281774  0.70491733  0.93807661     0.36400
C5012       C  0.91512500  0.81032005  0.96767273     0.40000
C5013       C  0.93060507  0.70558847  0.96186459     0.39200
C5014       C  0.88467867  0.81123353  0.94145426     0.36100
C5015       C  0.82880407  0.76708622  0.94292927     0.36800
C5016       C  0.87596331  0.74554569  0.88820449     0.40000
N5017       N  0.94146095  0.68466603  0.96563687    -0.38000
N5018       N  0.88727306  0.68333534  0.93251803    -0.39600
N5019       N  0.91862087  0.83129494  0.97410254    -0.37400
N5020       N  0.87698352  0.83283969  0.93681121    -0.39800
N5021       N  0.93695317  0.74913189  0.91064106    -0.39500
N5022       N  0.88612597  0.74030142  0.87738157    -0.37200
N5023       N  0.76778428  0.77008291  0.92195595    -0.38200
N5024       N  0.81964505  0.77130426  0.95407243    -0.39900
C5025       C  0.88018722  0.01344867  0.28382057    -0.04800
C5026       C  0.85402288  0.50097687  0.28605008     0.09300
C5027       C  0.85397366  0.48058239  0.29703097    -0.02200
C5028       C  0.87781582  0.47828555  0.30607387    -0.00500
C5029       C  0.90190622  0.49679219  0.30447644    -0.04100
C5030       C  0.90451013  0.01175504  0.29274062     0.02900
C5031       C  0.82889405  0.50234827  0.27616874     0.09800
C5032       C  0.82934843  0.46167747  0.29902814     0.35700
C5033       C  0.92900468  0.03026268  0.28995532     0.39100
C5034       C  0.82486280  0.97555178  0.26693717    -0.04400
C5035       C  0.80049390  0.97601543  0.25799623     0.02700
C5036       C  0.77714210  0.50072471  0.25938896    -0.04000
C5037       C  0.78439815  0.52501194  0.26832822    -0.00300
C5038       C  0.80950509  0.52519442  0.27679955    -0.02800
C5039       C  0.84589358  0.95270473  0.26562712     0.36400
C5040       C  0.76537502  0.54924557  0.27019302     0.40000
C5041       C  0.80218793  0.95652491  0.24606300     0.39200
C5042       C  0.81443485  0.54803733  0.28706721     0.36100
C5043       C  0.88037269  0.03285270  0.27186144     0.36800
C5044       C  0.87798377  0.45556361  0.31652456     0.40000
N5045       N  0.80545279  0.94129037  0.23652785    -0.38000
N5046       N  0.86268994  0.93462075  0.26464867    -0.39600
N5047       N  0.75165309  0.56936980  0.27245608    -0.37400
N5048       N  0.81831944  0.56606253  0.29533018    -0.39800
N5049       N  0.80999549  0.44628474  0.30069906    -0.39500
N5050       N  0.87768375  0.43694751  0.32459512    -0.37200
N5051       N  0.94836198  0.04502305  0.28730487    -0.38200
N5052       N  0.88037626  0.04825928  0.26229760    -0.39900
C5053       C  0.69687714  0.99363583  0.28547380    -0.04800
C5054       C  0.66820328  0.49584816  0.27860301     0.09300
C5055       C  0.66619049  0.49298009  0.26393369    -0.02200
C5056       C  0.69122365  0.49250259  0.25546555    -0.00500
C5057       C  0.71960111  0.49621635  0.26152912    -0.04100
C5058       C  0.72205577  0.99255092  0.27708421     0.02900
C5059       C  0.64175284  0.49738467  0.28756140     0.09800
C5060       C  0.63792697  0.49259949  0.25744150     0.35700
C5061       C  0.74797094  0.98696319  0.28495942     0.39100
C5062       C  0.63331305  0.52389182  0.29359697    -0.04400
C5063       C  0.60949487  0.52499078  0.30266976     0.02700
C5064       C  0.59415530  0.49962989  0.30598763    -0.04000
C5065       C  0.60461310  0.96831574  0.30066874    -0.00300
C5066       C  0.62869295  0.96844725  0.29159929    -0.02800
C5067       C  0.65005529  0.54992530  0.29138926     0.36400
C5068       C  0.59196533  0.94109081  0.30495117     0.40000
C5069       C  0.60149566  0.55217378  0.30913492     0.39200
C5070       C  0.63974441  0.94156173  0.28608861     0.36100
C5071       C  0.69885004  0.99313959  0.30079301     0.36800
C5072       C  0.68648628  0.49120461  0.24034304     0.40000
N5073       N  0.59511133  0.57382225  0.31427954    -0.38000
N5074       N  0.66293354  0.57122835  0.29030863    -0.39600
N5075       N  0.58237382  0.91915420  0.30841789    -0.37400
N5076       N  0.64897392  0.92030095  0.28168914    -0.39800
N5077       N  0.61544630  0.49261041  0.25225709    -0.39500
N5078       N  0.68097329  0.49023192  0.22844952    -0.37200
N5079       N  0.76742855  0.98191232  0.29208237    -0.38200
N5080       N  0.70042016  0.99259598  0.31296538    -0.39900
C5081       C  0.72290609  0.60162646  0.20238112    -0.04800
C5082       C  0.73932323  0.60442512  0.21478336     0.09300
C5083       C  0.75122597  0.63145256  0.21843528    -0.02200
C5084       C  0.74838609  0.65519097  0.20927130    -0.00500
C5085       C  0.73429067  0.65180095  0.19604328    -0.04100
C5086       C  0.72046777  0.62499294  0.19303344     0.02900
C5087       C  0.74214722  0.57936247  0.22457791     0.09800
C5088       C  0.76599691  0.63480458  0.23183114     0.35700
C5089       C  0.70252889  0.62126513  0.18063095     0.39100
C5090       C  0.76781144  0.56403692  0.22551483    -0.04400
C5091       C  0.76951291  0.53882533  0.23389426     0.02700
C5092       C  0.74565642  0.52926226  0.24252557    -0.04000
C5093       C  0.72224466  0.54954523  0.24328427    -0.00300
C5094       C  0.71940172  0.57199491  0.23342095    -0.02800
C5095       C  0.79244212  0.57393613  0.21742361     0.36400
C5096       C  0.70305400  0.55214609  0.25512631     0.40000
C5097       C  0.79589258  0.52283848  0.23253848     0.39200
C5098       C  0.69333178  0.58904534  0.23295357     0.36100
C5099       C  0.70753979  0.57490451  0.19943727     0.36800
C5100       C  0.75985825  0.68292664  0.21371573     0.40000
N5101       N  0.81782783  0.51202457  0.23067129    -0.38000
N5102       N  0.81216742  0.58200927  0.21113282    -0.39600
N5103       N  0.68729801  0.55615813  0.26428904    -0.37400
N5104       N  0.67259080  0.60250799  0.23254158    -0.39800
N5105       N  0.77770761  0.63717492  0.24254332    -0.39500
N5106       N  0.76873849  0.70506085  0.21742640    -0.37200
N5107       N  0.68803896  0.61753718  0.17087024    -0.38200
N5108       N  0.69462429  0.55402650  0.19706981    -0.39900
C5109       C  0.74734093  0.94420358  0.21789226    -0.04800
C5110       C  0.74426184  0.91701217  0.22414623     0.09300
C5111       C  0.74007578  0.91552059  0.23874739    -0.02200
C5112       C  0.74213088  0.94063212  0.24729548    -0.00500
C5113       C  0.74511924  0.96916788  0.24126958    -0.04100
C5114       C  0.74480136  0.96979705  0.22600685     0.02900
C5115       C  0.74393479  0.89003354  0.21519203     0.09800
C5116       C  0.73403573  0.88759464  0.24503676     0.35700
C5117       C  0.73826459  0.99507690  0.21783061     0.39100
C5118       C  0.76595360  0.86932451  0.21634943    -0.04400
C5119       C  0.76544076  0.84434145  0.20779581     0.02700
C5120       C  0.74477687  0.84130300  0.19704294    -0.04000
C5121       C  0.72216716  0.86126058  0.19620871    -0.00300
C5122       C  0.72122280  0.88493211  0.20556468    -0.02800
C5123       C  0.78953048  0.87372876  0.22611375     0.36400
C5124       C  0.69917826  0.85669830  0.18607836     0.40000
C5125       C  0.78562231  0.82141538  0.21035301     0.39200
C5126       C  0.69662599  0.90381690  0.20542106     0.36100
C5127       C  0.75269385  0.94583608  0.20279836     0.36800
C5128       C  0.74307174  0.93550153  0.26233614     0.40000
N5129       N  0.80106851  0.80274479  0.21281224    -0.38000
N5130       N  0.80860942  0.87664874  0.23381751    -0.39600
N5131       N  0.68079462  0.85287447  0.17805658    -0.37400
N5132       N  0.67688500  0.91872908  0.20533423    -0.39800
N5133       N  0.72922645  0.86524952  0.24990853    -0.39500
N5134       N  0.74384613  0.92885534  0.27407379    -0.37200
N5135       N  0.73229352  0.01399052  0.21052575    -0.38200
N5136       N  0.75698510  0.94707961  0.19080020    -0.39900
loop_ 
_geom_bond_atom_site_label_1 
_geom_bond_atom_site_label_2 
_geom_bond_distance 
_geom_bond_site_symmetry_2 
_ccdc_geom_bond_type 
C1         C1261   1.612       .  S
C1         C2468   1.614       .  S
C1         C2489   1.613       .  S
C1         C2524   1.621       .  S
N2           H34   1.039       .  S
N2            C6   1.351       .  A
N2         C2575   1.350       .  A
N3           C10   1.347   1_554  A
N3           C11   1.347       .  A
N4           H35   1.039       .  S
N4            C8   1.351       .  A
N4         C2577   1.351       .  A
N5           C12   1.350   1_554  A
N5           C13   1.348       .  A
C6           C14   1.387       .  A
C6           C22   1.410       .  A
C7         N2570   1.353   1_455  A
C7           C23   1.414       .  A
C7           C15   1.388       .  A
C8           C16   1.386       .  A
C8           C25   1.410       .  A
C9         N2572   1.349   1_455  A
C9           C24   1.412       .  A
C9           C17   1.387       .  A
C10          C22   1.407       .  A
C10          C18   1.386       .  A
C11          C25   1.408       .  A
C11          C19   1.386       .  A
C12          C20   1.385       .  A
C12          C23   1.410       .  A
C13          C21   1.387       .  A
C13          C24   1.412       .  A
C14        C2583   1.373       .  A
C14          H26   1.082       .  S
C15        C2582   1.371   1_455  A
C15          H27   1.082       .  S
C16        C2585   1.373       .  A
C16          H28   1.083       .  S
C17        C2584   1.372   1_455  A
C17          H29   1.083       .  S
C18          C19   1.377   1_556  A
C18          H30   1.082       .  S
C19          H31   1.082       .  S
C20          C21   1.377   1_556  A
C20          H32   1.082       .  S
C21          H33   1.082       .  S
C22        C1156   1.486       .  S
C23        C1128   1.493       .  S
C24        C1072   1.488       .  S
C25        C1100   1.489       .  S
C36        C1037   1.619       .  S
C36        C2237   1.617       .  S
C36        C2265   1.614       .  S
C36        C2293   1.612       .  S
C37         C904   1.610   1_655  S
C37        C3416   1.613       .  S
C37        C3444   1.616       .  S
C37        C3493   1.613       .  S
N38          H70   1.038       .  S
N38          C43   1.353       .  A
N38        C1326   1.351       .  A
N39          C46   1.352   1_554  A
N39          C47   1.349       .  A
N40          H71   1.039       .  S
N40          C45   1.349       .  A
N40        C1328   1.350       .  A
N41          C48   1.350   1_554  A
N41          C49   1.347       .  A
C42        N1322   1.354       .  A
C42          C50   1.385       .  A
C42          C58   1.414       .  A
C43          C59   1.414       .  A
C43          C51   1.386       .  A
C44        N1324   1.351       .  A
C44          C52   1.390       .  A
C44          C61   1.417       .  A
C45          C60   1.411       .  A
C45          C53   1.389       .  A
C46          C58   1.415       .  A
C46          C54   1.386       .  A
C47          C61   1.414       .  A
C47          C55   1.387       .  A
C48          C56   1.385       .  A
C48          C59   1.410       .  A
C49          C57   1.386       .  A
C49          C60   1.410       .  A
C50        C1335   1.370   1_545  A
C50          H62   1.083       .  S
C51        C1334   1.374       .  A
C51          H63   1.083       .  S
C52        C1337   1.370   1_545  A
C52          H64   1.082       .  S
C53        C1336   1.372       .  A
C53          H65   1.082       .  S
C54          C55   1.377   1_556  A
C54          H66   1.082       .  S
C55          H67   1.082       .  S
C56          C57   1.378   1_556  A
C56          H68   1.082       .  S
C57          H69   1.082       .  S
C58         C785   1.504       .  S
C59         C820   1.498       .  S
C60         C764   1.485       .  S
C61         C729   1.489       .  S
O72         Zr84   2.473       .  S
O72          C74   1.293       .  A
O73        Zr110   2.394       .  S
O73          C74   1.279       .  A
C74        C1149   1.513       .  S
O75         Zr87   2.469       .  S
O75          C77   1.293       .  A
O76        Zr111   2.451       .  S
O76          C77   1.292       .  A
C77        C1044   1.509       .  S
O78         Zr87   2.464       .  S
O78          C80   1.292       .  A
O79        Zr110   2.395       .  S
O79          C80   1.281       .  A
C80         C813   1.480       .  S
O81         Zr84   2.423       .  S
O81          C83   1.285       .  A
O82        Zr111   2.473       .  S
O82          C83   1.297       .  A
C83         C932   1.494       .  S
Zr84         O85   2.434       .  S
Zr84         O86   2.435       .  S
Zr84         O90   2.363       .  S
Zr84         O91   2.379       .  S
Zr84        O114   2.385       .  S
Zr84        O116   2.356       .  S
O85         H128   0.990       .  S
O86         H127   0.990       .  S
O86         H131   0.990       .  S
Zr87         O88   2.431       .  S
Zr87         O89   2.435       .  S
Zr87         O91   2.377       .  S
Zr87         O90   2.372       .  S
Zr87        O115   2.379       .  S
Zr87        O117   2.376       .  S
O88         H129   0.989       .  S
O88         H132   0.990       .  S
O89         H122   0.990       .  S
O90        Zr110   2.372       .  S
O91        Zr111   2.401       .  S
O91         H118   0.966       .  S
O92        Zr104   2.436       .  S
O92          C94   1.288       .  A
O93        Zr111   2.457       .  S
O93          C94   1.293       .  A
C94        C1016   1.500       .  S
O95        Zr107   2.470       .  S
O95          C97   1.292       .  A
O96        Zr110   2.398       .  S
O96          C97   1.281       .  A
C97        C1121   1.511       .  S
O98        Zr107   2.424       .  S
O98         C100   1.285       .  A
O99        Zr111   2.467       .  S
O99         C100   1.295       .  A
C100        C897   1.489       .  S
O101       Zr104   2.445       .  S
O101        C103   1.287       .  A
O102       Zr110   2.408       .  S
O102        C103   1.283       .  A
C103        C792   1.477       .  S
Zr104       O105   2.433       .  S
Zr104       O106   2.433       .  S
Zr104       O112   2.382       .  S
Zr104       O113   2.371       .  S
Zr104       O116   2.367       .  S
Zr104       O114   2.370       .  S
O105        H125   0.989       .  S
O105        H130   0.989       .  S
O106        H126   0.990       .  S
Zr107       O108   2.435       .  S
Zr107       O109   2.436       .  S
Zr107       O113   2.361       .  S
Zr107       O112   2.372       .  S
Zr107       O117   2.392       .  S
Zr107       O115   2.363       .  S
O108        H124   0.990       .  S
O109        H123   0.990       .  S
O109        H133   0.990       .  S
Zr110       O113   2.364       .  S
Zr110       O115   2.375       .  S
Zr110       O116   2.369       .  S
Zr111       O112   2.402       .  S
Zr111       O114   2.391       .  S
Zr111       O117   2.395       .  S
O112        H120   0.965       .  S
O115        H119   0.966       .  S
O116        H121   0.966       .  S
O134       Zr146   2.427       .  S
O134        C136   1.284       .  A
O135       Zr172   2.473       .  S
O135        C136   1.295       .  A
C136        C701   1.493       .  S
O137       Zr149   2.471       .  S
O137        C139   1.293       .  A
O138       Zr173   2.401       .  S
O138        C139   1.281       .  A
C139        C757   1.512       .  S
O140       Zr149   2.436       .  S
O140        C142   1.287       .  A
O141       Zr172   2.428       .  S
O141        C142   1.287       .  A
C142       C1268   1.478       .  S
O143       Zr146   2.444       .  S
O143        C145   1.288       .  A
O144       Zr173   2.401       .  S
O144        C145   1.281       .  A
C145       C1093   1.475       .  S
Zr146       O147   2.434       .  S
Zr146       O148   2.435       .  S
Zr146       O152   2.382       .  S
Zr146       O153   2.365       .  S
Zr146       O176   2.367       .  S
Zr146       O178   2.372       .  S
O147        H190   0.990       .  S
O148        H189   0.990       .  S
O148        H193   0.990       .  S
Zr149       O150   2.437       .  S
Zr149       O151   2.433       .  S
Zr149       O153   2.366       .  S
Zr149       O152   2.383       .  S
Zr149       O177   2.382       .  S
Zr149       O179   2.372       .  S
O150        H191   0.990       .  S
O150        H194   0.990       .  S
O151        H184   0.990       .  S
O152       Zr172   2.389       .  S
O153       Zr173   2.372       .  S
O153        H180   0.966       .  S
O154       Zr166   2.458       .  S
O154        C156   1.290       .  A
O155       Zr173   2.399       .  S
O155        C156   1.282       .  A
C156        C736   1.501       .  S
O157       Zr169   2.429       .  S
O157        C159   1.286       .  A
O158       Zr172   2.448       .  S
O158        C159   1.291       .  A
C159        C673   1.492       .  S
O160       Zr169   2.457       .  S
O160        C162   1.290       .  A
O161       Zr173   2.398       .  S
O161        C162   1.281       .  A
C162       C1065   1.480       .  S
O163       Zr166   2.440       .  S
O163        C165   1.289       .  A
O164       Zr172   2.428       .  S
O164        C165   1.287       .  A
C165       C1233   1.498       .  S
Zr166       O167   2.433       .  S
Zr166       O168   2.432       .  S
Zr166       O174   2.365       .  S
Zr166       O175   2.369       .  S
Zr166       O178   2.377       .  S
Zr166       O176   2.370       .  S
O167        H187   0.989       .  S
O167        H192   0.990       .  S
O168        H188   0.990       .  S
Zr169       O170   2.433       .  S
Zr169       O171   2.435       .  S
Zr169       O175   2.382       .  S
Zr169       O174   2.360       .  S
Zr169       O179   2.368       .  S
Zr169       O177   2.369       .  S
O170        H186   0.989       .  S
O171        H185   0.990       .  S
O171        H195   0.990       .  S
Zr172       O175   2.392       .  S
Zr172       O177   2.398       .  S
Zr172       O178   2.386       .  S
Zr173       O174   2.373       .  S
Zr173       O176   2.371       .  S
Zr173       O179   2.371       .  S
O174        H182   0.964       .  S
O177        H181   0.967       .  S
O178        H183   0.965       .  S
O196       Zr208   2.423       .  S
O196        C198   1.284       .  A
O197      Zr1518   2.460       .  S
O197        C198   1.293       .  A
C198        C869   1.489       .  S
O199       Zr211   2.486       .  S
O199        C201   1.296       .  A
O200      Zr2803   2.378       .  S
O200        C201   1.276       .  A
C201        C561   1.504       .  S
O202       Zr211   2.437       .  S
O202        C204   1.288       .  A
O203      Zr2802   2.455   1_455  S
O203        C204   1.292       .  A
C204        C988   1.506       .  S
O205       Zr208   2.444       .  S
O205        C207   1.287       .  A
O206      Zr1519   2.410       .  S
O206        C207   1.283       .  A
C207        C645   1.474       .  S
Zr208       O210   2.437       .  S
Zr208      O2777   2.434       .  S
Zr208       O238   2.369       .  S
Zr208       O240   2.379       .  S
Zr208      O2782   2.371       .  S
Zr208      O2783   2.367       .  S
O209      Zr2776   2.434   1_455  S
O209        H252   0.990       .  S
O210        H251   0.990       .  S
O210        H255   0.990       .  S
Zr211       O213   2.435       .  S
Zr211      O1496   2.434   1_545  S
Zr211       O239   2.384       .  S
Zr211       O241   2.359       .  S
Zr211      O1499   2.365   1_545  S
Zr211      O1498   2.386   1_545  S
O212      Zr1495   2.435       .  S
O212        H253   0.990       .  S
O212        H256   0.990       .  S
O213        H246   0.990       .  S
O214      Zr2776   2.376   1_455  S
O214      Zr1495   2.387       .  S
O214      Zr4086   2.395   1_455  S
O215      Zr2776   2.377   1_455  S
O215      Zr1495   2.361       .  S
O215      Zr4087   2.372   1_455  S
O215        H242   0.967       .  S
O216       Zr228   2.476       .  S
O216        C218   1.294       .  A
O217       Zr235   2.392       .  S
O217        C218   1.279       .  A
C218        C596   1.513   1_545  S
O219       Zr231   2.437       .  S
O219        C221   1.286       .  A
O220       Zr234   2.465       .  S
O220        C221   1.294       .  A
C221        C841   1.496       .  S
O222       Zr231   2.444       .  S
O222        C224   1.288       .  A
O223       Zr235   2.403       .  S
O223        C224   1.283       .  A
C224        C617   1.484       .  S
O225       Zr228   2.431       .  S
O225        C227   1.286       .  A
O226       Zr234   2.462       .  S
O226        C227   1.294       .  A
C227        C960   1.514       .  S
Zr228       O229   2.436       .  S
Zr228      O1514   2.433   1_545  S
Zr228       O236   2.362       .  S
Zr228       O237   2.382       .  S
Zr228      O1524   2.384   1_545  S
Zr228      O1522   2.359   1_545  S
O229        H249   0.990       .  S
O229        H254   0.990       .  S
O230      Zr1512   2.433       .  S
O230        H250   0.990       .  S
Zr231       O232   2.434       .  S
Zr231      O2801   2.437       .  S
Zr231       O237   2.375       .  S
Zr231       O236   2.377       .  S
Zr231      O2809   2.374       .  S
Zr231      O2807   2.372       .  S
O232        H248   0.990       .  S
O233      Zr2799   2.434   1_455  S
O233        H247   0.990       .  S
O233        H257   0.990       .  S
Zr234      O1481   2.464   1_545  S
Zr234      O2771   2.457   1_545  S
Zr234       O237   2.391       .  S
Zr234      O4066   2.394   1_545  S
Zr234      O2807   2.400       .  S
Zr234      O1524   2.399   1_545  S
Zr235      O2768   2.406   1_545  S
Zr235      O1490   2.407   1_545  S
Zr235       O236   2.377       .  S
Zr235      O4067   2.369   1_545  S
Zr235      O1522   2.372   1_545  S
Zr235      O2809   2.374       .  S
O236        H244   0.966       .  S
O238      Zr1512   2.361       .  S
O238      Zr1519   2.370       .  S
O239      Zr2799   2.371   1_455  S
O239      Zr2802   2.397   1_455  S
O239        H243   0.966       .  S
O240      Zr1512   2.387       .  S
O240      Zr1518   2.402       .  S
O240        H245   0.966       .  S
O241      Zr2799   2.365   1_455  S
O241      Zr2803   2.370       .  S
O258       Zr270   2.417       .  S
O258        C260   1.284       .  A
O259      Zr2864   2.443       .  S
O259        C260   1.290   1_565  A
C260       C1212   1.475       .  S
O261       Zr273   2.455       .  S
O261        C263   1.290       .  A
O262      Zr1581   2.423       .  S
O262        C263   1.287       .  A
C263        C477   1.494       .  S
O264       Zr273   2.457       .  S
O264        C266   1.292       .  A
O265      Zr1580   2.433       .  S
O265        C266   1.287       .  A
C266        C393   1.498       .  S
O267       Zr270   2.473       .  S
O267        C269   1.293       .  A
O268      Zr2865   2.383       .  S
O268        C269   1.277       .  A
C269        C512   1.511       .  S
Zr270       O272   2.435       .  S
Zr270      O1555   2.434   1_545  S
Zr270       O300   2.356       .  S
Zr270       O302   2.380       .  S
Zr270      O1560   2.390   1_545  S
Zr270      O1561   2.363   1_545  S
O271      Zr1554   2.435       .  S
O271        H314   0.990       .  S
O272        H313   0.990       .  S
O272        H317   0.990       .  S
Zr273       O275   2.429       .  S
Zr273      O2842   2.435       .  S
Zr273       O301   2.378       .  S
Zr273       O303   2.381       .  S
Zr273      O2845   2.373       .  S
Zr273      O2844   2.365       .  S
O274      Zr2841   2.435   1_455  S
O274        H315   0.990       .  S
O274        H318   0.990       .  S
O275        H308   0.990       .  S
O276      Zr1554   2.388       .  S
O276      Zr2841   2.371   1_455  S
O276      Zr4148   2.387   1_455  S
O277      Zr1554   2.364       .  S
O277      Zr2841   2.374   1_455  S
O277      Zr4149   2.375   1_455  S
O277        H304   0.966       .  S
O278       Zr290   2.454       .  S
O278        C280   1.289       .  A
O279       Zr297   2.421   1_545  S
O279        C280   1.286       .  A
C280        C456   1.484       .  S
O281       Zr293   2.450       .  S
O281        C283   1.291       .  A
O282       Zr296   2.456       .  S
O282        C283   1.293       .  A
C283       C1177   1.504       .  S
O284       Zr293   2.479       .  S
O284        C286   1.295       .  A
O285       Zr297   2.398   1_545  S
O285        C286   1.281   1_545  A
C286        C540   1.506       .  S
O287       Zr290   2.445       .  S
O287        C289   1.289       .  A
O288       Zr296   2.441   1_545  S
O288        C289   1.289       .  A
C289        C421   1.493       .  S
Zr290       O291   2.437       .  S
Zr290      O2860   2.434       .  S
Zr290       O298   2.373       .  S
Zr290       O299   2.373       .  S
Zr290      O2870   2.379       .  S
Zr290      O2868   2.376       .  S
O291        H311   0.989       .  S
O291        H316   0.990       .  S
O292      Zr2858   2.435   1_455  S
O292        H312   0.990       .  S
Zr293       O294   2.435   1_565  S
Zr293      O1579   2.433       .  S
Zr293       O299   2.380   1_565  S
Zr293       O298   2.368   1_565  S
Zr293      O1587   2.365       .  S
Zr293      O1585   2.384       .  S
O294        H310   0.990       .  S
O295      Zr1577   2.434       .  S
O295        H309   0.990       .  S
O295        H319   0.990       .  S
Zr296      O2827   2.469       .  S
Zr296      O1549   2.432       .  S
Zr296       O299   2.389   1_565  S
Zr296      O4128   2.390       .  S
Zr296      O1585   2.400       .  S
Zr296      O2870   2.395   1_565  S
Zr297      O1546   2.415       .  S
Zr297      O2836   2.393       .  S
Zr297       O298   2.374   1_565  S
Zr297      O4129   2.373       .  S
Zr297      O2868   2.371   1_565  S
Zr297      O1587   2.373       .  S
O298        H306   0.965       .  S
O300      Zr2858   2.371   1_455  S
O300      Zr2865   2.369       .  S
O301      Zr1577   2.376       .  S
O301      Zr1580   2.389       .  S
O301        H305   0.966       .  S
O302      Zr2858   2.371   1_455  S
O302      Zr2864   2.392   1_545  S
O302        H307   0.965       .  S
O303      Zr1577   2.369       .  S
O303      Zr1581   2.372       .  S
N320        H352   1.040       .  S
N320        C325   1.356   1_655  A
N320        C324   1.353   1_655  A
N321        C328   1.349   1_655  A
N321        C329   1.351       .  A
N322        H353   1.037   1_655  S
N322        C327   1.353       .  A
N322        C326   1.357       .  A
N323        C330   1.352       .  A
N323        C331   1.350       .  A
C324        C332   1.387       .  A
C324        C340   1.414       .  A
C325        C341   1.417   1_455  A
C325        C333   1.387       .  A
C326        C334   1.387       .  A
C326        C343   1.419       .  A
C327        C342   1.416       .  A
C327        C335   1.387       .  A
C328        C340   1.414       .  A
C328        C336   1.386   1_455  A
C329        C343   1.416       .  A
C329        C337   1.386       .  A
C330        C338   1.386       .  A
C330        C341   1.418       .  A
C331        C339   1.386       .  A
C331        C342   1.416       .  A
C332        C333   1.370       .  A
C332        H344   1.083       .  S
C333        H345   1.082       .  S
C334        C335   1.368       .  A
C334        H346   1.082       .  S
C335        H347   1.083       .  S
C336        C337   1.376       .  A
C336        H348   1.082   1_655  S
C337        H349   1.082       .  S
C338        C339   1.377       .  A
C338        H350   1.082       .  S
C339        H351   1.082       .  S
C340        C624   1.494       .  S
C341        C652   1.508       .  S
C342        C484   1.495       .  S
C343        C449   1.503       .  S
N354        H386   1.036       .  S
N354        C359   1.352       .  A
N354        C358   1.353       .  A
N355        C362   1.350       .  A
N355        C363   1.350       .  A
N356        H387   1.031       .  S
N356        C361   1.352       .  A
N356        C360   1.351       .  A
N357        C364   1.350       .  A
N357        C365   1.351       .  A
C358        C366   1.388       .  A
C358        C374   1.415       .  A
C359        C375   1.413       .  A
C359        C367   1.387       .  A
C360        C368   1.389       .  A
C360        C377   1.418       .  A
C361        C376   1.415       .  A
C361        C369   1.387       .  A
C362        C374   1.414       .  A
C362        C370   1.386       .  A
C363        C377   1.414       .  A
C363        C371   1.386       .  A
C364        C372   1.385       .  A
C364        C375   1.412       .  A
C365        C373   1.386       .  A
C365        C376   1.414       .  A
C366        C367   1.371       .  A
C366        H378   1.082       .  S
C367        H379   1.082       .  S
C368        C369   1.369       .  A
C368        H380   1.082       .  S
C369        H381   1.082       .  S
C370        C371   1.376       .  A
C370        H382   1.082       .  S
C371        H383   1.082       .  S
C372        C373   1.374       .  A
C372        H384   1.082       .  S
C373        H385   1.082       .  S
C374        C568   1.494       .  S
C375        C589   1.489       .  S
C376        C533   1.491       .  S
C377        C505   1.489       .  S
C388        C400   1.621       .  S
C388        C428   1.610       .  S
C388        C708   1.617       .  S
C388       C3248   1.614       .  S
C389        C394   1.417       .  A
C389       C2958   1.411   1_455  A
C389        C407   1.451       .  S
C390        C391   1.411       .  A
C390       C2957   1.413       .  A
C390        C395   1.507       .  S
C391        C392   1.410       .  A
C391        C396   1.451       .  S
C392        C393   1.416       .  A
C392        C408   1.451       .  S
C393       C2962   1.418       .  A
C394       C2961   1.422   1_455  A
C394        C397   1.450       .  S
C395        C402   1.397       .  A
C395       C2966   1.399       .  A
C396        N413   1.157       .  T
C397        N415   1.158       .  T
C398        C399   1.422       .  A
C398       C2963   1.400   1_455  A
C398        C403   1.454       .  S
C399       C2968   1.450   1_455  A
C399        C405   1.448       .  S
C400        C401   1.455       .  A
C400       C2967   1.452       .  A
C401        C402   1.418       .  A
C401        C404   1.445       .  S
C402        C406   1.458       .  S
C403        N410   1.157       .  T
C404        N411   1.156       .  T
C405        N409   1.157       .  T
C406        N412   1.157       .  T
C407        N416   1.157       .  T
C408        N414   1.157       .  T
C417        C418   1.414       .  A
C417        C422   1.414       .  A
C417        C435   1.451       .  S
C418       C2987   1.414       .  A
C418        C423   1.508       .  S
C419        C420   1.413       .  A
C419       C2986   1.417   1_455  A
C419        C424   1.450       .  S
C420       C2989   1.413   1_455  A
C420        C436   1.451       .  S
C421        C422   1.415       .  A
C421       C2988   1.412       .  A
C422        C425   1.451       .  S
C423        C430   1.400       .  A
C423       C2994   1.403       .  A
C424        N441   1.157       .  T
C425        N443   1.157       .  T
C426        C427   1.421       .  A
C426       C2991   1.405       .  A
C426        C431   1.456       .  S
C427       C2996   1.447       .  A
C427        C433   1.445       .  S
C428        C429   1.451       .  A
C428       C2995   1.447       .  A
C429        C430   1.418       .  A
C429        C432   1.450       .  S
C430        C434   1.454       .  S
C431        N438   1.157   1_655  T
C432        N439   1.157       .  T
C433        N437   1.157       .  T
C434        N440   1.157       .  T
C435        N444   1.157       .  T
C436        N442   1.157       .  T
C445        C446   1.417       .  A
C445        C450   1.414       .  A
C445       C3031   1.450       .  S
C446        C447   1.417   1_655  A
C446       C3019   1.509       .  S
C447        C448   1.410       .  A
C447        C452   1.452       .  S
C448        C449   1.414   1_455  A
C448        C464   1.452       .  S
C449        C450   1.413       .  A
C450        C453   1.449       .  S
C451        C454   1.418       .  A
C451       C3026   1.414       .  A
C451       C3014   1.506       .  S
C452        N469   1.157       .  T
C453        N471   1.157       .  T
C454        C455   1.413       .  A
C454        C459   1.451       .  S
C455        C456   1.410       .  A
C455        C461   1.450       .  S
C456       C3025   1.410       .  A
C457        C458   1.404       .  A
C457       C3024   1.405   1_455  A
C457        C460   1.448       .  S
C458       C3019   1.415   1_455  A
C458        C462   1.450       .  S
C459        N466   1.157       .  T
C460        N467   1.157       .  T
C461        N465   1.157       .  T
C462        N468   1.157       .  T
C463       C3013   1.451       .  S
C463        N472   1.157       .  T
C464        N470   1.157       .  T
C473        C474   1.406   1_455  A
C473        C478   1.406       .  A
C473        C491   1.453       .  S
C474       C3043   1.411       .  A
C474        C479   1.496       .  S
C475        C476   1.416       .  A
C475       C3042   1.414       .  A
C475        C480   1.451       .  S
C476        C477   1.416       .  A
C476        C492   1.450       .  S
C477       C3046   1.416       .  A
C478       C3045   1.418   1_455  A
C478        C481   1.446       .  S
C479        C486   1.412   1_655  A
C479       C3050   1.412       .  A
C480        N497   1.157       .  T
C481        N499   1.155       .  T
C482        C483   1.412       .  A
C482       C3047   1.413       .  A
C482        C487   1.450       .  S
C483       C3052   1.413       .  A
C483        C489   1.449       .  S
C484        C485   1.414   1_655  A
C484       C3051   1.412       .  A
C485        C486   1.406       .  A
C485        C488   1.452       .  S
C486        C490   1.452       .  S
C487        N494   1.157       .  T
C488        N495   1.157       .  T
C489        N493   1.157       .  T
C490        N496   1.157       .  T
C491        N500   1.157       .  T
C492        N498   1.157       .  T
C501        C506   1.411       .  A
C501       C1786   1.411       .  A
C501        C519   1.450       .  S
C502        C503   1.410       .  A
C502       C1785   1.410       .  A
C502        C507   1.490       .  S
C503        C504   1.406       .  A
C503        C508   1.451       .  S
C504        C505   1.411       .  A
C504        C520   1.450       .  S
C505       C1790   1.411       .  A
C506       C1789   1.413       .  A
C506        C509   1.450       .  S
C507        C514   1.401       .  A
C507       C1794   1.408       .  A
C508        N525   1.157       .  T
C509        N527   1.157       .  T
C510        C511   1.415       .  A
C510       C1791   1.409       .  A
C510        C515   1.451       .  S
C511        C512   1.423       .  A
C511        C517   1.451       .  S
C512       C1797   1.435       .  A
C513        C514   1.406       .  A
C513       C1796   1.434       .  A
C513        C516   1.453       .  S
C514        C518   1.455       .  S
C515        N522   1.157       .  T
C516        N523   1.158       .  T
C517        N521   1.158       .  T
C518        N524   1.157       .  T
C519        N528   1.157       .  T
C520        N526   1.157       .  T
C529        C530   1.413       .  A
C529        C534   1.410       .  A
C529        C547   1.450       .  S
C530       C1815   1.410   1_545  A
C530        C535   1.495       .  S
C531        C532   1.408       .  A
C531       C1814   1.411       .  A
C531        C536   1.451       .  S
C532        C533   1.412       .  A
C532        C548   1.450       .  S
C533       C1818   1.411       .  A
C534       C1817   1.411       .  A
C534        C537   1.450       .  S
C535        C542   1.409       .  A
C535       C1822   1.404   1_545  A
C536        N553   1.157       .  T
C537        N555   1.157       .  T
C538        C539   1.409       .  A
C538       C1819   1.405       .  A
C538        C543   1.453       .  S
C539       C1824   1.425       .  A
C539        C545   1.451       .  S
C540        C541   1.423   1_565  A
C540       C1823   1.427       .  A
C541        C542   1.416       .  A
C541        C544   1.450       .  S
C542        C546   1.451       .  S
C543        N550   1.157       .  T
C544        N551   1.157       .  T
C545        N549   1.157       .  T
C546        N552   1.157       .  T
C547        N556   1.157       .  T
C548        N554   1.157       .  T
C557        C562   1.406       .  A
C557       C1842   1.403       .  A
C557        C575   1.455       .  S
C558        C559   1.409       .  A
C558       C1841   1.403       .  A
C558        C563   1.495       .  S
C559        C560   1.415       .  A
C559        C564   1.451       .  S
C560       C1845   1.423       .  A
C560        C576   1.450       .  S
C561        C562   1.430       .  A
C561       C1844   1.420       .  A
C562        C565   1.452       .  S
C563        C570   1.412       .  A
C563       C1850   1.411       .  A
C564        N581   1.157       .  T
C565        N583   1.157       .  T
C566        C567   1.408       .  A
C566       C1847   1.413       .  A
C566        C571   1.451       .  S
C567       C1852   1.410       .  A
C567        C573   1.450       .  S
C568        C569   1.411       .  A
C568       C1851   1.413       .  A
C569        C570   1.408       .  A
C569        C572   1.451       .  S
C570        C574   1.450       .  S
C571        N578   1.157       .  T
C572        N579   1.157       .  T
C573        N577   1.157       .  T
C574        N580   1.157       .  T
C575        N584   1.157       .  T
C576        N582   1.157       .  T
C585        C586   1.410   1_545  A
C585        C590   1.408       .  A
C585        C603   1.451       .  S
C586       C1871   1.410       .  A
C586        C591   1.495       .  S
C587        C588   1.409       .  A
C587       C1870   1.413       .  A
C587        C592   1.451       .  S
C588        C589   1.411       .  A
C588        C604   1.450       .  S
C589       C1874   1.411       .  A
C590       C1873   1.412       .  A
C590        C593   1.450       .  S
C591        C594   1.407   1_565  A
C591       C1882   1.403       .  A
C592        N609   1.157       .  T
C593        N611   1.157       .  T
C594        C595   1.414       .  A
C594        C599   1.451       .  S
C595        C596   1.425   1_545  A
C595        C601   1.451       .  S
C596       C1881   1.434       .  A
C597        C598   1.407       .  A
C597       C1880   1.436       .  A
C597        C600   1.454       .  S
C598       C1875   1.402       .  A
C598        C602   1.455       .  S
C599        N606   1.157       .  T
C600        N607   1.157       .  T
C601        N605   1.157       .  T
C602        N608   1.157       .  T
C603        N612   1.157       .  T
C604        N610   1.157       .  T
C613        C618   1.410       .  A
C613       C3182   1.414       .  A
C613        C631   1.451       .  S
C614        C615   1.409       .  A
C614       C3181   1.412       .  A
C614       C3187   1.492       .  S
C615        C616   1.403       .  A
C615        C620   1.453       .  S
C616        C617   1.416       .  A
C616        C632   1.450       .  S
C617       C3186   1.415       .  A
C618       C3185   1.412   1_455  A
C618        C621   1.450       .  S
C619        C622   1.413       .  A
C619       C3194   1.412   1_455  A
C619       C3182   1.493       .  S
C620        N637   1.157       .  T
C621        N639   1.157       .  T
C622        C623   1.410       .  A
C622        C627   1.451       .  S
C623        C624   1.412       .  A
C623        C629   1.449       .  S
C624       C3193   1.414   1_455  A
C625        C626   1.404       .  A
C625       C3192   1.415       .  A
C625        C628   1.452       .  S
C626       C3187   1.410       .  A
C626        C630   1.453       .  S
C627        N634   1.157       .  T
C628        N635   1.157       .  T
C629        N633   1.157       .  T
C630        N636   1.157       .  T
C631        N640   1.157       .  T
C632        N638   1.156       .  T
C641        C646   1.404       .  A
C641       C3210   1.412       .  A
C641        C659   1.451       .  S
C642        C643   1.417   1_655  A
C642       C3209   1.415       .  A
C642        C647   1.504       .  S
C643        C644   1.410       .  A
C643        C648   1.450       .  S
C644       C3213   1.408   1_455  A
C644        C660   1.452       .  S
C645        C646   1.407       .  A
C645       C3212   1.411       .  A
C646        C649   1.448       .  S
C647        C650   1.414   1_655  A
C647       C3222   1.412       .  A
C648        N665   1.157       .  T
C649        N667   1.157       .  T
C650        C651   1.413       .  A
C650        C655   1.450       .  S
C651        C652   1.415   1_455  A
C651        C657   1.449       .  S
C652       C3221   1.418       .  A
C653        C654   1.406       .  A
C653       C3220   1.414       .  A
C653        C656   1.452       .  S
C654       C3215   1.412       .  A
C654        C658   1.452       .  S
C655        N662   1.157       .  T
C656        N663   1.157       .  T
C657        N661   1.157       .  T
C658        N664   1.157       .  T
C659        N668   1.157       .  T
C660        N666   1.157       .  T
C669        C670   1.413       .  A
C669        C674   1.411       .  A
C669        C687   1.451       .  S
C670        C671   1.414       .  A
C670        C675   1.507       .  S
C671        C672   1.415       .  A
C671        C676   1.450       .  S
C672        C673   1.414       .  A
C672        C688   1.449       .  S
C673        C674   1.416       .  A
C674        C677   1.452       .  S
C675        C678   1.398       .  A
C675        C682   1.403       .  A
C676        N693   1.157       .  T
C677        N695   1.157       .  T
C678        C679   1.417       .  A
C678        C683   1.457       .  S
C679        C680   1.457       .  A
C679        C685   1.452       .  S
C680       C2956   1.614   1_455  S
C680        C681   1.446       .  A
C681        C682   1.420       .  A
C681        C684   1.450       .  S
C682        C686   1.453       .  S
C683        N690   1.157       .  T
C684       N3259   1.157       .  T
C685        N689   1.158       .  T
C686        N692   1.157       .  T
C687        N696   1.157       .  T
C688        N694   1.157       .  T
N691       C3252   1.157       .  T
C697        C698   1.414       .  A
C697        C702   1.414       .  A
C697        C715   1.449       .  S
C698        C699   1.415       .  A
C698        C703   1.512       .  S
C699        C700   1.418       .  A
C699        C704   1.451       .  S
C700        C701   1.415       .  A
C700        C716   1.449       .  S
C701        C702   1.413       .  A
C702        C705   1.452       .  S
C703        C706   1.402       .  A
C703        C710   1.402       .  A
C704        N721   1.157       .  T
C705        N723   1.157       .  T
C706        C707   1.421       .  A
C706        C711   1.454       .  S
C707        C708   1.450       .  A
C707        C713   1.451       .  S
C708        C709   1.450       .  A
C709        C710   1.421       .  A
C709        C712   1.447       .  S
C710        C714   1.456       .  S
C711        N718   1.157       .  T
C712       N3287   1.157       .  T
C713        N717   1.157       .  T
C714        N720   1.157       .  T
C715        N724   1.157       .  T
C716        N722   1.157       .  T
N719       C3280   1.158   1_455  T
C725        C726   1.412       .  A
C725        C730   1.407       .  A
C725        C743   1.451       .  S
C726        C727   1.411       .  A
C726        C731   1.491       .  S
C727        C728   1.407       .  A
C727        C732   1.451       .  S
C728        C729   1.413       .  A
C728        C744   1.451       .  S
C729        C730   1.411       .  A
C730        C733   1.450       .  S
C731        C734   1.404       .  A
C731        C738   1.409       .  A
C732        N749   1.157       .  T
C733        N751   1.157       .  T
C734        C735   1.407       .  A
C734        C739   1.453       .  S
C735        C736   1.426       .  A
C735        C741   1.451       .  S
C736        C737   1.422       .  A
C737        C738   1.411       .  A
C737        C740   1.451       .  S
C738        C742   1.452       .  S
C739        N746   1.157       .  T
C740        N747   1.157       .  T
C741        N745   1.157       .  T
C742        N748   1.157       .  T
C743        N752   1.157       .  T
C744        N750   1.157       .  T
C753        C754   1.405       .  A
C753        C758   1.407       .  A
C753        C771   1.455       .  S
C754        C755   1.409       .  A
C754        C759   1.495       .  S
C755        C756   1.416       .  A
C755        C760   1.452       .  S
C756        C757   1.425       .  A
C756        C772   1.450       .  S
C757        C758   1.431       .  A
C758        C761   1.453       .  S
C759        C762   1.413       .  A
C759        C766   1.414       .  A
C760        N777   1.157       .  T
C761        N779   1.157       .  T
C762        C763   1.408       .  A
C762        C767   1.450       .  S
C763        C764   1.410       .  A
C763        C769   1.451       .  S
C764        C765   1.409       .  A
C765        C766   1.407       .  A
C765        C768   1.451       .  S
C766        C770   1.451       .  S
C767        N774   1.157       .  T
C768        N775   1.157       .  T
C769        N773   1.157       .  T
C770        N776   1.157       .  T
C771        N780   1.157       .  T
C772        N778   1.157       .  T
C781        C782   1.411       .  A
C781        C786   1.410       .  A
C781        C799   1.452       .  S
C782        C783   1.412       .  A
C782        C787   1.498       .  S
C783        C784   1.411       .  A
C783        C788   1.452       .  S
C784        C785   1.415       .  A
C784        C800   1.450       .  S
C785        C786   1.418       .  A
C786        C789   1.452       .  S
C787        C790   1.415       .  A
C787        C794   1.412       .  A
C788        N805   1.157       .  T
C789        N807   1.157       .  T
C790        C791   1.410       .  A
C790        C795   1.451       .  S
C791        C792   1.410       .  A
C791        C797   1.451       .  S
C792        C793   1.412       .  A
C793        C794   1.408       .  A
C793        C796   1.451       .  S
C794        C798   1.451       .  S
C795        N802   1.157       .  T
C796        N803   1.157       .  T
C797        N801   1.157       .  T
C798        N804   1.157       .  T
C799        N808   1.157       .  T
C800        N806   1.157       .  T
C809        C810   1.413       .  A
C809        C814   1.410       .  A
C809        C827   1.451       .  S
C810        C811   1.410       .  A
C810        C815   1.495       .  S
C811        C812   1.408       .  A
C811        C816   1.451       .  S
C812        C813   1.414       .  A
C812        C828   1.451       .  S
C813        C814   1.412       .  A
C814        C817   1.450       .  S
C815        C818   1.410       .  A
C815        C822   1.412       .  A
C816        N833   1.157       .  T
C817        N835   1.157       .  T
C818        C819   1.408       .  A
C818        C823   1.451       .  S
C819        C820   1.415       .  A
C819        C825   1.452       .  S
C820        C821   1.414       .  A
C821        C822   1.412       .  A
C821        C824   1.449       .  S
C822        C826   1.451       .  S
C823        N830   1.157       .  T
C824        N831   1.157       .  T
C825        N829   1.157       .  T
C826        N832   1.157       .  T
C827        N836   1.157       .  T
C828        N834   1.157       .  T
C837        C838   1.415       .  A
C837        C842   1.414       .  A
C837        C855   1.451       .  S
C838       C3407   1.418       .  A
C838        C843   1.519       .  S
C839        C840   1.414       .  A
C839       C3406   1.417   1_455  A
C839        C844   1.450       .  S
C840       C3409   1.411   1_455  A
C840        C856   1.451       .  S
C841        C842   1.414       .  A
C841       C3408   1.413       .  A
C842        C845   1.452       .  S
C843        C846   1.405       .  A
C843       C3418   1.404       .  A
C844        N861   1.157       .  T
C845        N863   1.157       .  T
C846        C847   1.422       .  A
C846        C851   1.455       .  S
C847        C848   1.448       .  A
C847        C853   1.446       .  S
C848       C2605   1.618       .  S
C848       C3417   1.450       .  A
C849        C850   1.420       .  A
C849       C3416   1.448   1_455  A
C849        C852   1.450       .  S
C850       C3411   1.405   1_455  A
C850        C854   1.453       .  S
C851        N858   1.157       .  T
C852        N859   1.157       .  T
C853        N857   1.157       .  T
C854        N860   1.157       .  T
C855        N864   1.157       .  T
C856        N862   1.157       .  T
C865        C870   1.415       .  A
C865       C3434   1.416   1_455  A
C865        C883   1.452       .  S
C866        C867   1.416       .  A
C866       C3433   1.414       .  A
C866        C871   1.510       .  S
C867        C868   1.416       .  A
C867        C872   1.449       .  S
C868        C869   1.412       .  A
C868        C884   1.450       .  S
C869       C3438   1.415       .  A
C870       C3437   1.416   1_455  A
C870        C873   1.451       .  S
C871        C874   1.402       .  A
C871        C878   1.404       .  A
C872        N889   1.157       .  T
C873        N891   1.157       .  T
C874        C875   1.415       .  A
C874        C879   1.456       .  S
C875        C876   1.448       .  A
C875        C881   1.447       .  S
C876       C2605   1.609       .  S
C876        C877   1.447       .  A
C877        C878   1.420       .  A
C877       C3448   1.450       .  S
C878        C882   1.452       .  S
C879        N886   1.157       .  T
C880       C3445   1.451       .  S
C880        N887   1.157       .  T
C881        N885   1.157       .  T
C882        N888   1.157       .  T
C883        N892   1.157       .  T
C884        N890   1.157       .  T
C893        C894   1.417       .  A
C893        C898   1.412       .  A
C893        C911   1.452       .  S
C894        C895   1.418       .  A
C894        C899   1.515       .  S
C895        C896   1.417       .  A
C895        C900   1.450       .  S
C896        C897   1.412       .  A
C896        C912   1.450       .  S
C897        C898   1.412       .  A
C898        C901   1.451       .  S
C899        C902   1.407       .  A
C899        C906   1.405       .  A
C900        N917   1.157       .  T
C901        N919   1.157       .  T
C902        C903   1.421       .  A
C902        C907   1.453       .  S
C903        C904   1.447       .  A
C903        C909   1.450       .  S
C904        C905   1.446       .  A
C905        C906   1.414       .  A
C905        C908   1.449       .  S
C906        C910   1.455       .  S
C907        N914   1.157       .  T
C908        N915   1.158       .  T
C909       N3481   1.157   1_455  T
C910        N916   1.157       .  T
C911        N920   1.157       .  T
C912        N918   1.157       .  T
N913       C3477   1.157       .  T
C921        C922   1.403       .  A
C921        C926   1.415       .  A
C921        C939   1.455       .  S
C922        C923   1.408       .  A
C922        C927   1.517       .  S
C923        C924   1.424       .  A
C923        C928   1.452       .  S
C924        C925   1.447       .  A
C924        C940   1.449       .  S
C925       C2605   1.617       .  S
C925        C926   1.449       .  A
C926        C929   1.448       .  S
C927        C930   1.417       .  A
C927        C934   1.418       .  A
C928        N945   1.157       .  T
C929        N947   1.157       .  T
C930        C931   1.416       .  A
C930        C935   1.449       .  S
C931        C932   1.412       .  A
C931        C937   1.450       .  S
C932        C933   1.415       .  A
C933        C934   1.415       .  A
C933        C936   1.451       .  S
C934        C938   1.452       .  S
C935        N942   1.157       .  T
C936        N943   1.157       .  T
C937        N941   1.157       .  T
C938        N944   1.157       .  T
C939        N948   1.157       .  T
C940        N946   1.157       .  T
C949        C950   1.399       .  A
C949        C954   1.421       .  A
C949        C967   1.457       .  S
C950       C2235   1.404   1_545  A
C950        C955   1.513       .  S
C951        C952   1.423       .  A
C951       C2234   1.404       .  A
C951        C956   1.453       .  S
C952       C2237   1.448       .  A
C952        C968   1.449       .  S
C953       C1320   1.623       .  S
C953        C954   1.452       .  A
C953       C2236   1.447   1_545  A
C954        C957   1.444       .  S
C955        C962   1.409       .  A
C955       C2242   1.413       .  A
C956        N973   1.157       .  T
C957        N975   1.156       .  T
C958        C959   1.419       .  A
C958       C2239   1.413       .  A
C958        C963   1.449       .  S
C959       C2244   1.422       .  A
C959        C965   1.450       .  S
C960        C961   1.426       .  A
C960       C2243   1.421       .  A
C961        C962   1.414       .  A
C961        C964   1.452       .  S
C962        C966   1.452       .  S
C963        N970   1.157       .  T
C964        N971   1.157       .  T
C965        N969   1.158       .  T
C966        N972   1.157       .  T
C967        N976   1.157       .  T
C968        N974   1.157       .  T
C977        C982   1.418       .  A
C977       C2262   1.402       .  A
C977        C995   1.456       .  S
C978        C979   1.403       .  A
C978       C2261   1.400   1_545  A
C978        C983   1.505       .  S
C979        C980   1.422       .  A
C979        C984   1.454       .  S
C980        C981   1.447       .  A
C980        C996   1.448       .  S
C981       C1320   1.613       .  S
C981       C2266   1.447   1_545  A
C982       C2265   1.449       .  A
C982        C985   1.445       .  S
C983        C986   1.414       .  A
C983       C2274   1.407   1_545  A
C984       N1001   1.157       .  T
C985       N1003   1.157       .  T
C986        C987   1.420       .  A
C986        C991   1.449       .  S
C987        C988   1.420       .  A
C987        C993   1.450       .  S
C988       C2273   1.421   1_545  A
C989        C990   1.409       .  A
C989       C2272   1.417       .  A
C989        C992   1.450       .  S
C990       C2267   1.410       .  A
C990        C994   1.453       .  S
C991        N998   1.157       .  T
C992        N999   1.157       .  T
C993        N997   1.158       .  T
C994       N1000   1.157       .  T
C995       N1004   1.157       .  T
C996       N1002   1.157       .  T
C1005      C1006   1.397       .  A
C1005      C1010   1.415       .  A
C1005      C1023   1.456       .  S
C1006      C1007   1.403       .  A
C1006      C1011   1.505       .  S
C1007      C1008   1.422       .  A
C1007      C1012   1.453       .  S
C1008      C1009   1.447       .  A
C1008      C1024   1.449       .  S
C1009      C1320   1.614       .  S
C1009      C1010   1.450       .  A
C1010      C1013   1.445       .  S
C1011      C1014   1.409       .  A
C1011      C1018   1.413       .  A
C1012      N1029   1.157       .  T
C1013      N1031   1.156       .  T
C1014      C1015   1.411       .  A
C1014      C1019   1.453       .  S
C1015      C1016   1.421       .  A
C1015      C1021   1.450       .  S
C1016      C1017   1.415       .  A
C1017      C1018   1.415       .  A
C1017      C1020   1.450       .  S
C1018      C1022   1.448       .  S
C1019      N1026   1.157       .  T
C1020      N1027   1.157       .  T
C1021      N1025   1.157       .  T
C1022      N1028   1.157       .  T
C1023      N1032   1.157       .  T
C1024      N1030   1.157       .  T
C1033      C1034   1.399       .  A
C1033      C1038   1.419       .  A
C1033      C1051   1.455       .  S
C1034      C1035   1.402       .  A
C1034      C1039   1.511       .  S
C1035      C1036   1.424       .  A
C1035      C1040   1.454       .  S
C1036      C1037   1.449       .  A
C1036      C1052   1.448       .  S
C1037      C1038   1.451       .  A
C1038      C1041   1.447       .  S
C1039      C1042   1.410       .  A
C1039      C1046   1.413       .  A
C1040      N1057   1.157       .  T
C1041      N1059   1.157       .  T
C1042      C1043   1.414       .  A
C1042      C1047   1.452       .  S
C1043      C1044   1.419       .  A
C1043      C1049   1.449       .  S
C1044      C1045   1.419       .  A
C1045      C1046   1.419       .  A
C1045      C1048   1.449       .  S
C1046      C1050   1.448       .  S
C1047      N1054   1.157       .  T
C1048      N1055   1.157       .  T
C1049      N1053   1.157       .  T
C1050      N1056   1.157       .  T
C1051      N1060   1.157       .  T
C1052      N1058   1.157       .  T
C1061      C1062   1.411       .  A
C1061      C1066   1.408       .  A
C1061      C1079   1.451       .  S
C1062      C1063   1.411       .  A
C1062      C1067   1.493       .  S
C1063      C1064   1.408       .  A
C1063      C1068   1.452       .  S
C1064      C1065   1.414       .  A
C1064      C1080   1.451       .  S
C1065      C1066   1.413       .  A
C1066      C1069   1.451       .  S
C1067      C1070   1.411       .  A
C1067      C1074   1.415       .  A
C1068      N1085   1.157       .  T
C1069      N1087   1.157       .  T
C1070      C1071   1.405       .  A
C1070      C1075   1.451       .  S
C1071      C1072   1.412       .  A
C1071      C1077   1.452       .  S
C1072      C1073   1.409       .  A
C1073      C1074   1.408       .  A
C1073      C1076   1.451       .  S
C1074      C1078   1.450       .  S
C1075      N1082   1.157       .  T
C1076      N1083   1.157       .  T
C1077      N1081   1.157       .  T
C1078      N1084   1.157       .  T
C1079      N1088   1.157       .  T
C1080      N1086   1.157       .  T
C1089      C1090   1.412       .  A
C1089      C1094   1.407       .  A
C1089      C1107   1.452       .  S
C1090      C1091   1.412       .  A
C1090      C1095   1.492       .  S
C1091      C1092   1.407       .  A
C1091      C1096   1.451       .  S
C1092      C1093   1.412       .  A
C1092      C1108   1.452       .  S
C1093      C1094   1.412       .  A
C1094      C1097   1.451       .  S
C1095      C1098   1.414       .  A
C1095      C1102   1.411       .  A
C1096      N1113   1.157       .  T
C1097      N1115   1.157       .  T
C1098      C1099   1.408       .  A
C1098      C1103   1.451       .  S
C1099      C1100   1.411       .  A
C1099      C1105   1.450       .  S
C1100      C1101   1.413       .  A
C1101      C1102   1.405       .  A
C1101      C1104   1.452       .  S
C1102      C1106   1.452       .  S
C1103      N1110   1.157       .  T
C1104      N1111   1.157       .  T
C1105      N1109   1.157       .  T
C1106      N1112   1.157       .  T
C1107      N1116   1.157       .  T
C1108      N1114   1.157       .  T
C1117      C1118   1.404       .  A
C1117      C1122   1.407       .  A
C1117      C1135   1.454       .  S
C1118      C1119   1.411       .  A
C1118      C1123   1.498       .  S
C1119      C1120   1.417       .  A
C1119      C1124   1.452       .  S
C1120      C1121   1.424       .  A
C1120      C1136   1.450       .  S
C1121      C1122   1.429       .  A
C1122      C1125   1.452       .  S
C1123      C1126   1.412       .  A
C1123      C1130   1.413       .  A
C1124      N1141   1.157       .  T
C1125      N1143   1.157       .  T
C1126      C1127   1.410       .  A
C1126      C1131   1.451       .  S
C1127      C1128   1.411       .  A
C1127      C1133   1.450       .  S
C1128      C1129   1.411       .  A
C1129      C1130   1.409       .  A
C1129      C1132   1.450       .  S
C1130      C1134   1.451       .  S
C1131      N1138   1.157       .  T
C1132      N1139   1.157       .  T
C1133      N1137   1.157       .  T
C1134      N1140   1.157       .  T
C1135      N1144   1.157       .  T
C1136      N1142   1.158       .  T
C1145      C1146   1.404       .  A
C1145      C1150   1.409       .  A
C1145      C1163   1.454       .  S
C1146      C1147   1.408       .  A
C1146      C1151   1.495       .  S
C1147      C1148   1.414       .  A
C1147      C1152   1.452       .  S
C1148      C1149   1.425       .  A
C1148      C1164   1.450       .  S
C1149      C1150   1.432       .  A
C1150      C1153   1.453       .  S
C1151      C1154   1.412       .  A
C1151      C1158   1.414       .  A
C1152      N1169   1.157       .  T
C1153      N1171   1.158       .  T
C1154      C1155   1.407       .  A
C1154      C1159   1.450       .  S
C1155      C1156   1.410       .  A
C1155      C1161   1.451       .  S
C1156      C1157   1.409       .  A
C1157      C1158   1.409       .  A
C1157      C1160   1.451       .  S
C1158      C1162   1.450       .  S
C1159      N1166   1.157       .  T
C1160      N1167   1.157       .  T
C1161      N1165   1.157       .  T
C1162      N1168   1.157       .  T
C1163      N1172   1.157       .  T
C1164      N1170   1.157       .  T
C1173      C1178   1.418       .  A
C1173      C2458   1.414       .  A
C1173      C1191   1.451       .  S
C1174      C1175   1.413       .  A
C1174      C2457   1.413   1_565  A
C1174      C1179   1.512   1_565  S
C1175      C1176   1.413       .  A
C1175      C1180   1.452       .  S
C1176      C1177   1.418       .  A
C1176      C1192   1.451       .  S
C1177      C2462   1.418   1_565  A
C1178      C2461   1.417       .  A
C1178      C1181   1.448       .  S
C1179      C1186   1.404       .  A
C1179      C2466   1.401   1_545  A
C1180      N1197   1.157       .  T
C1181      N1199   1.157       .  T
C1182      C1183   1.416       .  A
C1182      C2463   1.399       .  A
C1182      C1187   1.457       .  S
C1183      C2468   1.452       .  A
C1183      C1189   1.448       .  S
C1184      C1285   1.613       .  S
C1184      C1185   1.446       .  A
C1184      C2467   1.453   1_545  A
C1185      C1186   1.422       .  A
C1185      C1188   1.450       .  S
C1186      C1190   1.453       .  S
C1187      N1194   1.157       .  T
C1188      N1195   1.157       .  T
C1189      N1193   1.157       .  T
C1190      N1196   1.157       .  T
C1191      N1200   1.157       .  T
C1192      N1198   1.157       .  T
C1201      C1206   1.420       .  A
C1201      C2486   1.401       .  A
C1201      C1219   1.457       .  S
C1202      C1203   1.400   1_545  A
C1202      C2485   1.400       .  A
C1202      C1207   1.502       .  S
C1203      C1204   1.417       .  A
C1203      C1208   1.454       .  S
C1204      C1205   1.451   1_565  A
C1204      C1220   1.452       .  S
C1205      C1285   1.611       .  S
C1205      C2490   1.451       .  A
C1206      C2489   1.451       .  A
C1206      C1209   1.447       .  S
C1207      C1210   1.416       .  A
C1207      C2498   1.414   1_545  A
C1208      N1225   1.157       .  T
C1209      N1227   1.157       .  T
C1210      C1211   1.409       .  A
C1210      C1215   1.450       .  S
C1211      C1212   1.410       .  A
C1211      C1217   1.453       .  S
C1212      C2497   1.409   1_545  A
C1213      C1214   1.416       .  A
C1213      C2496   1.412       .  A
C1213      C1216   1.450       .  S
C1214      C2491   1.415       .  A
C1214      C1218   1.451       .  S
C1215      N1222   1.157       .  T
C1216      N1223   1.157       .  T
C1217      N1221   1.157       .  T
C1218      N1224   1.157       .  T
C1219      N1228   1.157       .  T
C1220      N1226   1.157       .  T
C1229      C1230   1.408       .  A
C1229      C1234   1.408       .  A
C1229      C1247   1.451       .  S
C1230      C1231   1.410       .  A
C1230      C1235   1.499       .  S
C1231      C1232   1.414       .  A
C1231      C1236   1.451       .  S
C1232      C1233   1.421       .  A
C1232      C1248   1.451       .  S
C1233      C1234   1.420       .  A
C1234      C1237   1.451       .  S
C1235      C1238   1.399       .  A
C1235      C1242   1.395       .  A
C1236      N1253   1.157       .  T
C1237      N1255   1.157       .  T
C1238      C1239   1.420       .  A
C1238      C1243   1.454       .  S
C1239      C1240   1.449       .  A
C1239      C1245   1.449       .  S
C1240      C1285   1.617       .  S
C1240      C1241   1.454       .  A
C1241      C1242   1.414       .  A
C1241      C1244   1.446       .  S
C1242      C1246   1.459       .  S
C1243      N1250   1.157       .  T
C1244      N1251   1.156       .  T
C1245      N1249   1.157       .  T
C1246      N1252   1.157       .  T
C1247      N1256   1.157       .  T
C1248      N1254   1.158       .  T
C1257      C1258   1.401       .  A
C1257      C1262   1.417       .  A
C1257      C1275   1.456       .  S
C1258      C1259   1.398       .  A
C1258      C1263   1.502       .  S
C1259      C1260   1.417       .  A
C1259      C1264   1.456       .  S
C1260      C1261   1.453       .  A
C1260      C1276   1.448       .  S
C1261      C1262   1.448       .  A
C1262      C1265   1.444       .  S
C1263      C1266   1.416       .  A
C1263      C1270   1.413       .  A
C1264      N1281   1.157       .  T
C1265      N1283   1.157       .  T
C1266      C1267   1.411       .  A
C1266      C1271   1.449       .  S
C1267      C1268   1.408       .  A
C1267      C1273   1.449       .  S
C1268      C1269   1.412       .  A
C1269      C1270   1.407       .  A
C1269      C1272   1.452       .  S
C1270      C1274   1.451       .  S
C1271      N1278   1.157       .  T
C1272      N1279   1.157       .  T
C1273      N1277   1.156       .  T
C1274      N1280   1.157       .  T
C1275      N1284   1.157       .  T
C1276      N1282   1.157       .  T
C1285      C2545   1.609   1_545  S
N1286      H1318   1.039       .  S
N1286      C3859   1.353       .  A
N1286      C1290   1.353       .  A
N1287      C1294   1.353   1_554  A
N1287      C1295   1.350       .  A
N1288      H1319   1.038       .  S
N1288      C3861   1.352       .  A
N1288      C1292   1.350       .  A
N1289      C1296   1.354   1_554  A
N1289      C1297   1.350       .  A
C1290      C1298   1.386       .  A
C1290      C1306   1.415       .  A
C1291      N3854   1.354   1_455  A
C1291      C1307   1.415       .  A
C1291      C1299   1.386       .  A
C1292      C1300   1.388       .  A
C1292      C1309   1.412       .  A
C1293      N3856   1.352   1_455  A
C1293      C1308   1.420       .  A
C1293      C1301   1.390       .  A
C1294      C1306   1.415       .  A
C1294      C1302   1.385       .  A
C1295      C1309   1.414       .  A
C1295      C1303   1.386       .  A
C1296      C1304   1.385       .  A
C1296      C1307   1.417       .  A
C1297      C1305   1.387       .  A
C1297      C1308   1.417       .  A
C1298      C3867   1.375       .  A
C1298      H1310   1.083       .  S
C1299      C3866   1.371   1_455  A
C1299      H1311   1.083       .  S
C1300      C3869   1.372       .  A
C1300      H1312   1.082       .  S
C1301      C3868   1.370   1_455  A
C1301      H1313   1.082       .  S
C1302      C1303   1.379   1_556  A
C1302      H1314   1.082       .  S
C1303      H1315   1.082       .  S
C1304      C1305   1.377   1_556  A
C1304      H1316   1.082       .  S
C1305      H1317   1.082       .  S
C1306      C2440   1.505       .  S
C1307      C2412   1.505       .  S
C1308      C2356   1.493       .  S
C1309      C2384   1.489       .  S
C1320      C2321   1.621   1_545  S
C1321      C4700   1.621       .  S
C1321      C4728   1.616       .  S
C1321      C2188   1.624   1_655  S
C1321      C4777   1.624       .  S
N1322      H1354   1.038       .  S
N1322      C1327   1.352   1_545  A
N1323      C1330   1.348       .  A
N1323      C1331   1.352   1_556  A
N1324      H1355   1.037       .  S
N1324      C1329   1.354   1_545  A
N1325      C1332   1.350   1_554  A
N1325      C1333   1.353       .  A
C1326      C1334   1.389       .  A
C1326      C1342   1.415       .  A
C1327      C1343   1.417       .  A
C1327      C1335   1.390       .  A
C1328      C1336   1.385       .  A
C1328      C1345   1.408       .  A
C1329      C1344   1.413       .  A
C1329      C1337   1.385       .  A
C1330      C1342   1.414       .  A
C1330      C1338   1.388       .  A
C1331      C1345   1.412       .  A
C1331      C1339   1.384       .  A
C1332      C1340   1.387       .  A
C1332      C1343   1.414       .  A
C1333      C1341   1.385       .  A
C1333      C1344   1.415       .  A
C1334      H1346   1.082       .  S
C1335      H1347   1.081       .  S
C1336      H1348   1.083       .  S
C1337      H1349   1.083       .  S
C1338      C1339   1.380   1_556  A
C1338      H1350   1.082       .  S
C1339      H1351   1.082       .  S
C1340      C1341   1.376   1_556  A
C1340      H1352   1.082       .  S
C1341      H1353   1.082       .  S
C1342      C2069   1.487       .  S
C1343      C2104   1.491       .  S
C1344      C2048   1.503       .  S
C1345      C2013   1.498       .  S
O1356     Zr1368   2.490       .  S
O1356      C1358   1.296       .  A
O1357     Zr1394   2.400       .  S
O1357      C1358   1.281       .  A
C1358      C2433   1.497       .  S
O1359     Zr1371   2.448       .  S
O1359      C1361   1.290       .  A
O1360     Zr1395   2.461       .  S
O1360      C1361   1.294       .  A
C1361      C2328   1.502       .  S
O1362     Zr1371   2.473       .  S
O1362      C1364   1.294       .  A
O1363     Zr1394   2.396       .  S
O1363      C1364   1.281       .  A
C1364      C2097   1.505       .  S
O1365     Zr1368   2.443       .  S
O1365      C1367   1.288       .  A
O1366     Zr1395   2.459       .  S
O1366      C1367   1.293       .  A
C1367      C2216   1.497       .  S
Zr1368     O1369   2.435       .  S
Zr1368     O1370   2.433       .  S
Zr1368     O1374   2.369       .  S
Zr1368     O1375   2.377       .  S
Zr1368     O1398   2.391       .  S
Zr1368     O1400   2.363       .  S
O1369      H1412   0.990       .  S
O1370      H1411   0.989       .  S
O1370      H1415   0.990       .  S
Zr1371     O1372   2.431       .  S
Zr1371     O1373   2.435       .  S
Zr1371     O1375   2.389       .  S
Zr1371     O1374   2.371       .  S
Zr1371     O1399   2.366       .  S
Zr1371     O1401   2.380       .  S
O1372      H1413   0.989       .  S
O1372      H1416   0.990       .  S
O1373      H1406   0.990       .  S
O1374     Zr1394   2.374       .  S
O1375     Zr1395   2.404       .  S
O1375      H1402   0.966       .  S
O1376     Zr1388   2.436       .  S
O1376      C1378   1.289       .  A
O1377     Zr1395   2.461       .  S
O1377      C1378   1.294       .  A
C1378      C2300   1.505       .  S
O1379     Zr1391   2.463       .  S
O1379      C1381   1.292       .  A
O1380     Zr1394   2.400       .  S
O1380      C1381   1.282       .  A
C1381      C2405   1.484       .  S
O1382     Zr1391   2.445       .  S
O1382      C1384   1.288       .  A
O1383     Zr1395   2.457       .  S
O1383      C1384   1.292       .  A
C1384      C2181   1.496       .  S
O1385     Zr1388   2.463       .  S
O1385      C1387   1.291       .  A
O1386     Zr1394   2.396       .  S
O1386      C1387   1.279       .  A
C1387      C2076   1.510       .  S
Zr1388     O1389   2.430       .  S
Zr1388     O1390   2.434       .  S
Zr1388     O1396   2.385       .  S
Zr1388     O1397   2.363       .  S
Zr1388     O1400   2.365       .  S
Zr1388     O1398   2.382       .  S
O1389      H1409   0.989       .  S
O1389      H1414   0.989       .  S
O1390      H1410   0.990       .  S
Zr1391     O1392   2.436       .  S
Zr1391     O1393   2.435       .  S
Zr1391     O1397   2.374       .  S
Zr1391     O1396   2.372       .  S
Zr1391     O1401   2.377       .  S
Zr1391     O1399   2.362       .  S
O1392      H1408   0.990       .  S
O1393      H1407   0.989       .  S
O1393      H1417   0.989       .  S
Zr1394     O1397   2.365       .  S
Zr1394     O1399   2.373       .  S
Zr1394     O1400   2.377       .  S
Zr1395     O1396   2.396       .  S
Zr1395     O1398   2.398       .  S
Zr1395     O1401   2.395       .  S
O1396      H1404   0.965       .  S
O1399      H1403   0.966       .  S
O1400      H1405   0.965       .  S
O1418     Zr1430   2.424       .  S
O1418      C1420   1.284       .  A
O1419     Zr1456   2.450       .  S
O1419      C1420   1.291       .  A
C1420      C1985   1.481       .  S
O1421     Zr1433   2.474       .  S
O1421      C1423   1.294       .  A
O1422     Zr1457   2.410       .  S
O1422      C1423   1.284       .  A
C1423      C2041   1.497       .  S
O1424     Zr1433   2.439       .  S
O1424      C1426   1.288       .  A
O1425     Zr1456   2.443       .  S
O1425      C1426   1.290       .  A
C1426      C2552   1.486       .  S
O1427     Zr1430   2.451       .  S
O1427      C1429   1.289       .  A
O1428     Zr1457   2.401       .  S
O1428      C1429   1.282       .  A
C1429      C2377   1.506       .  S
Zr1430     O1431   2.435       .  S
Zr1430     O1432   2.438       .  S
Zr1430     O1436   2.385       .  S
Zr1430     O1437   2.369       .  S
Zr1430     O1460   2.358       .  S
Zr1430     O1462   2.367       .  S
O1431      H1474   0.990       .  S
O1432      H1473   0.990       .  S
O1432      H1477   0.990       .  S
Zr1433     O1434   2.435       .  S
Zr1433     O1435   2.433       .  S
Zr1433     O1437   2.368       .  S
Zr1433     O1436   2.379       .  S
Zr1433     O1461   2.389       .  S
Zr1433     O1463   2.373       .  S
O1434      H1475   0.990       .  S
O1434      H1478   0.990       .  S
O1435      H1468   0.990       .  S
O1436     Zr1456   2.391       .  S
O1437     Zr1457   2.376       .  S
O1437      H1464   0.967       .  S
O1438     Zr1450   2.464       .  S
O1438      C1440   1.292       .  A
O1439     Zr1457   2.406       .  S
O1439      C1440   1.283       .  A
C1440      C2020   1.489       .  S
O1441     Zr1453   2.449       .  S
O1441      C1443   1.290       .  A
O1442     Zr1456   2.438       .  S
O1442      C1443   1.289       .  A
C1443      C1957   1.494       .  S
O1444     Zr1453   2.468       .  S
O1444      C1446   1.292       .  A
O1445     Zr1457   2.408       .  S
O1445      C1446   1.283       .  A
C1446      C2349   1.507       .  S
O1447     Zr1450   2.456       .  S
O1447      C1449   1.292       .  A
O1448     Zr1456   2.447       .  S
O1448      C1449   1.291       .  A
C1449      C2517   1.512       .  S
Zr1450     O1451   2.432       .  S
Zr1450     O1452   2.434       .  S
Zr1450     O1458   2.378       .  S
Zr1450     O1459   2.377       .  S
Zr1450     O1462   2.371       .  S
Zr1450     O1460   2.361       .  S
O1451      H1471   0.990       .  S
O1451      H1476   0.990       .  S
O1452      H1472   0.990       .  S
Zr1453     O1454   2.431       .  S
Zr1453     O1455   2.437       .  S
Zr1453     O1459   2.382       .  S
Zr1453     O1458   2.365       .  S
Zr1453     O1463   2.375       .  S
Zr1453     O1461   2.373       .  S
O1454      H1470   0.989       .  S
O1455      H1469   0.990       .  S
O1455      H1479   0.990       .  S
Zr1456     O1459   2.391       .  S
Zr1456     O1461   2.400       .  S
Zr1456     O1462   2.388       .  S
Zr1457     O1458   2.375       .  S
Zr1457     O1460   2.371       .  S
Zr1457     O1463   2.373       .  S
O1458      H1466   0.966       .  S
O1461      H1465   0.966       .  S
O1462      H1467   0.966       .  S
O1480     Zr1492   2.427       .  S
O1480      C1482   1.285       .  A
O1481      C1482   1.294       .  A
C1482      C2153   1.492       .  S
O1483     Zr1495   2.476       .  S
O1483      C1485   1.294       .  A
O1484     Zr4087   2.394   1_455  S
O1484      C1485   1.280       .  A
C1485      C1845   1.508       .  S
O1486     Zr1495   2.421       .  S
O1486      C1488   1.285       .  A
O1487     Zr4086   2.462   1_455  S
O1487      C1488   1.294       .  A
C1488      C2272   1.491       .  S
O1489     Zr1492   2.455       .  S
O1489      C1491   1.289       .  A
O1490      C1491   1.282       .  A
C1491      C1929   1.476       .  S
Zr1492     O4061   2.433       .  S
Zr1492     O1494   2.437       .  S
Zr1492     O4066   2.378       .  S
Zr1492     O4067   2.374       .  S
Zr1492     O1522   2.361       .  S
Zr1492     O1524   2.376       .  S
O1493     Zr4060   2.434   1_455  S
O1493      H1536   0.990       .  S
O1494      H1535   0.990       .  S
O1494      H1539   0.990       .  S
Zr1495     O1497   2.435       .  S
Zr1495     O1523   2.386       .  S
Zr1495     O1525   2.356       .  S
O1496      H1537   0.990       .  S
O1496      H1540   0.990       .  S
O1497      H1530   0.990       .  S
O1498     Zr4060   2.380   1_455  S
O1498     Zr2802   2.395   1_465  S
O1499     Zr4060   2.376   1_455  S
O1499     Zr2803   2.369   1_565  S
O1499      H1526   0.965       .  S
O1500     Zr1512   2.480       .  S
O1500      C1502   1.294       .  A
O1501     Zr1519   2.375       .  S
O1501      C1502   1.275       .  A
C1502      C1880   1.511       .  S
O1503     Zr1515   2.426       .  S
O1503      C1505   1.284       .  A
O1504     Zr1518   2.465       .  S
O1504      C1505   1.294       .  A
C1505      C2125   1.492       .  S
O1506     Zr1515   2.448       .  S
O1506      C1508   1.288       .  A
O1507     Zr1519   2.410       .  S
O1507      C1508   1.284       .  A
C1508      C1901   1.485       .  S
O1509     Zr1512   2.427       .  S
O1509      C1511   1.286       .  A
O1510     Zr1518   2.469       .  S
O1510      C1511   1.296       .  A
C1511      C2244   1.519       .  S
Zr1512     O1513   2.436       .  S
Zr1512     O1520   2.359       .  S
Zr1512     O1521   2.386       .  S
O1513      H1533   0.990       .  S
O1513      H1538   0.990       .  S
O1514      H1534   0.990       .  S
Zr1515     O1516   2.434       .  S
Zr1515     O4085   2.434       .  S
Zr1515     O1521   2.376       .  S
Zr1515     O1520   2.372       .  S
Zr1515     O4093   2.365       .  S
Zr1515     O4091   2.375       .  S
O1516      H1532   0.990       .  S
O1517     Zr4083   2.431   1_455  S
O1517      H1531   0.990       .  S
O1517      H1541   0.990       .  S
Zr1518     O4055   2.463       .  S
Zr1518     O2782   2.392       .  S
Zr1518     O1521   2.390       .  S
Zr1518     O4091   2.401       .  S
Zr1519     O4052   2.382       .  S
Zr1519     O2783   2.365       .  S
Zr1519     O1520   2.365       .  S
Zr1519     O4093   2.370       .  S
O1520      H1528   0.965       .  S
O1523     Zr4083   2.372   1_455  S
O1523     Zr4086   2.403   1_455  S
O1523      H1527   0.966       .  S
O1524      H1529   0.966       .  S
O1525     Zr4083   2.365   1_455  S
O1525     Zr4087   2.366   1_455  S
O1542     Zr1554   2.424       .  S
O1542      C1544   1.284       .  A
O1543     Zr4148   2.458   1_455  S
O1543      C1544   1.293       .  A
C1544      C2496   1.485       .  S
O1545     Zr1557   2.469       .  S
O1545      C1547   1.292       .  A
O1546      C1547   1.285       .  A
C1547      C1761   1.496       .  S
O1548     Zr1557   2.456       .  S
O1548      C1550   1.292       .  A
O1549      C1550   1.288       .  A
C1550      C1677   1.501       .  S
O1551     Zr1554   2.479       .  S
O1551      C1553   1.294       .  A
O1552     Zr4149   2.382   1_455  S
O1552      C1553   1.277       .  A
C1553      C1796   1.509       .  S
Zr1554     O1556   2.435       .  S
Zr1554     O1584   2.356       .  S
Zr1554     O1586   2.387       .  S
O1555      H1598   0.990       .  S
O1556      H1597   0.990       .  S
O1556      H1601   0.990       .  S
Zr1557     O4126   2.437       .  S
Zr1557     O1559   2.429       .  S
Zr1557     O4129   2.368       .  S
Zr1557     O4128   2.376       .  S
Zr1557     O1585   2.377       .  S
Zr1557     O1587   2.374       .  S
O1558     Zr4125   2.435       .  S
O1558      H1599   0.990       .  S
O1558      H1602   0.990       .  S
O1559      H1592   0.990       .  S
O1560     Zr4125   2.366       .  S
O1560     Zr2864   2.389       .  S
O1561     Zr4125   2.369       .  S
O1561     Zr2865   2.372   1_565  S
O1561      H1588   0.966       .  S
O1562     Zr1574   2.449       .  S
O1562      C1564   1.288       .  A
O1563     Zr1581   2.419       .  S
O1563      C1564   1.286       .  A
C1564      C1740   1.478       .  S
O1565     Zr1577   2.438       .  S
O1565      C1567   1.289       .  A
O1566     Zr1580   2.448       .  S
O1566      C1567   1.291       .  A
C1567      C2461   1.499       .  S
O1568     Zr1577   2.469       .  S
O1568      C1570   1.292       .  A
O1569     Zr1581   2.395       .  S
O1569      C1570   1.281       .  A
C1570      C1824   1.501       .  S
O1571     Zr1574   2.438       .  S
O1571      C1573   1.287       .  A
O1572     Zr1580   2.423       .  S
O1572      C1573   1.286       .  A
C1573      C1705   1.485       .  S
Zr1574     O1575   2.436       .  S
Zr1574     O4144   2.436       .  S
Zr1574     O1582   2.374       .  S
Zr1574     O1583   2.368       .  S
Zr1574     O4154   2.380       .  S
Zr1574     O4152   2.373       .  S
O1575      H1595   0.990       .  S
O1575      H1600   0.990       .  S
O1576     Zr4142   2.435   1_455  S
O1576      H1596   0.990       .  S
Zr1577     O1578   2.433       .  S
Zr1577     O1583   2.374       .  S
Zr1577     O1582   2.359       .  S
O1578      H1594   0.990       .  S
O1579      H1593   0.990       .  S
O1579      H1603   0.990       .  S
Zr1580     O4111   2.440       .  S
Zr1580     O2844   2.386       .  S
Zr1580     O1583   2.381       .  S
Zr1580     O4154   2.400       .  S
Zr1581     O4120   2.386       .  S
Zr1581     O2845   2.372       .  S
Zr1581     O1582   2.374       .  S
Zr1581     O4152   2.373       .  S
O1582      H1590   0.966       .  S
O1584     Zr4142   2.367   1_455  S
O1584     Zr4149   2.368   1_455  S
O1585      H1589   0.966       .  S
O1586     Zr4142   2.375   1_455  S
O1586     Zr4148   2.395   1_455  S
O1586      H1591   0.965       .  S
N1604      H1636   1.038       .  S
N1604      C1609   1.355       .  A
N1604      C1608   1.355       .  A
N1605      C1612   1.350       .  A
N1605      C1613   1.349       .  A
N1606      H1637   1.038       .  S
N1606      C1611   1.356       .  A
N1606      C1610   1.356       .  A
N1607      C1614   1.351       .  A
N1607      C1615   1.351       .  A
C1608      C1616   1.387       .  A
C1608      C1624   1.417       .  A
C1609      C1625   1.417       .  A
C1609      C1617   1.387       .  A
C1610      C1618   1.389   1_455  A
C1610      C1627   1.421       .  A
C1611      C1626   1.417       .  A
C1611      C1619   1.386   1_455  A
C1612      C1624   1.415       .  A
C1612      C1620   1.386       .  A
C1613      C1627   1.417       .  A
C1613      C1621   1.387       .  A
C1614      C1622   1.386       .  A
C1614      C1625   1.418       .  A
C1615      C1623   1.385       .  A
C1615      C1626   1.416       .  A
C1616      C1617   1.371       .  A
C1616      H1628   1.083       .  S
C1617      H1629   1.082       .  S
C1618      C1619   1.370       .  A
C1618      H1630   1.083       .  S
C1619      H1631   1.083       .  S
C1620      C1621   1.376       .  A
C1620      H1632   1.081       .  S
C1621      H1633   1.082       .  S
C1622      C1623   1.377       .  A
C1622      H1634   1.082       .  S
C1623      H1635   1.082       .  S
C1624      C1908   1.500       .  S
C1625      C1936   1.503       .  S
C1626      C1768   1.502       .  S
C1627      C1733   1.500       .  S
N1638      H1670   1.038       .  S
N1638      C1643   1.352       .  A
N1638      C1642   1.351       .  A
N1639      C1646   1.349       .  A
N1639      C1647   1.350       .  A
N1640      H1671   1.038       .  S
N1640      C1645   1.351       .  A
N1640      C1644   1.353       .  A
N1641      C1648   1.351       .  A
N1641      C1649   1.351       .  A
C1642      C1650   1.388       .  A
C1642      C1658   1.412       .  A
C1643      C1659   1.413       .  A
C1643      C1651   1.387       .  A
C1644      C1652   1.387       .  A
C1644      C1661   1.412       .  A
C1645      C1660   1.413       .  A
C1645      C1653   1.387       .  A
C1646      C1658   1.410       .  A
C1646      C1654   1.386       .  A
C1647      C1661   1.412       .  A
C1647      C1655   1.386       .  A
C1648      C1656   1.385   1_545  A
C1648      C1659   1.414       .  A
C1649      C1657   1.386   1_545  A
C1649      C1660   1.414       .  A
C1650      C1651   1.370       .  A
C1650      H1662   1.082       .  S
C1651      H1663   1.082       .  S
C1652      C1653   1.371       .  A
C1652      H1664   1.082       .  S
C1653      H1665   1.082       .  S
C1654      C1655   1.377       .  A
C1654      H1666   1.082       .  S
C1655      H1667   1.082       .  S
C1656      C1657   1.379       .  A
C1656      H1668   1.082       .  S
C1657      H1669   1.082       .  S
C1658      C1852   1.487       .  S
C1659      C1873   1.494       .  S
C1660      C1817   1.492       .  S
C1661      C1789   1.492       .  S
C1672      C1684   1.621       .  S
C1672      C1712   1.608       .  S
C1672      C4532   1.613       .  S
C1672      C1992   1.616       .  S
C1673      C4242   1.412   1_455  A
C1673      C1678   1.414       .  A
C1673      C1691   1.450       .  S
C1674      C4241   1.412       .  A
C1674      C1675   1.411       .  A
C1674      C1679   1.507       .  S
C1675      C1676   1.410       .  A
C1675      C1680   1.451       .  S
C1676      C1677   1.417       .  A
C1676      C1692   1.451       .  S
C1677      C4246   1.420       .  A
C1678      C4245   1.417   1_455  A
C1678      C1681   1.450       .  S
C1679      C4250   1.399       .  A
C1679      C1686   1.397       .  A
C1680      N1697   1.157       .  T
C1681      N1699   1.157       .  T
C1682      C4247   1.398   1_455  A
C1682      C1683   1.418       .  A
C1682      C1687   1.456       .  S
C1683      C4252   1.453   1_455  A
C1683      C1689   1.449       .  S
C1684      C4251   1.452       .  A
C1684      C1685   1.455       .  A
C1685      C1686   1.419       .  A
C1685      C1688   1.445       .  S
C1686      C1690   1.458       .  S
C1687      N1694   1.157       .  T
C1688      N1695   1.156       .  T
C1689      N1693   1.157       .  T
C1690      N1696   1.157       .  T
C1691      N1700   1.157       .  T
C1692      N1698   1.157       .  T
C1701      C1702   1.413       .  A
C1701      C1706   1.409       .  A
C1701      C1719   1.451       .  S
C1702      C4271   1.414       .  A
C1702      C1707   1.501       .  S
C1703      C4270   1.415   1_455  A
C1703      C1704   1.411       .  A
C1703      C1708   1.449       .  S
C1704      C4273   1.410   1_455  A
C1704      C1720   1.450       .  S
C1705      C4272   1.413       .  A
C1705      C1706   1.413       .  A
C1706      C1709   1.451       .  S
C1707      C4278   1.401       .  A
C1707      C1714   1.398       .  A
C1708      N1725   1.157       .  T
C1709      N1727   1.157       .  T
C1710      C4275   1.403       .  A
C1710      C1711   1.420       .  A
C1710      C1715   1.456       .  S
C1711      C4280   1.449       .  A
C1711      C1717   1.445       .  S
C1712      C4279   1.448       .  A
C1712      C1713   1.452       .  A
C1713      C1714   1.415       .  A
C1713      C1716   1.449       .  S
C1714      C1718   1.455       .  S
C1715      N1722   1.157       .  T
C1716      N1723   1.157       .  T
C1717      N1721   1.157       .  T
C1718      N1724   1.157       .  T
C1719      N1728   1.157       .  T
C1720      N1726   1.157       .  T
C1729      C1730   1.414   1_655  A
C1729      C1734   1.411       .  A
C1729      C4315   1.450       .  S
C1730      C1731   1.414       .  A
C1730      C4303   1.501       .  S
C1731      C1732   1.408       .  A
C1731      C1736   1.451       .  S
C1732      C1733   1.415       .  A
C1732      C1748   1.452       .  S
C1733      C1734   1.413   1_455  A
C1734      C1737   1.450       .  S
C1735      C1738   1.417       .  A
C1735      C4310   1.412       .  A
C1735      C4298   1.500       .  S
C1736      N1753   1.157       .  T
C1737      N1755   1.157       .  T
C1738      C1739   1.415       .  A
C1738      C1743   1.450       .  S
C1739      C1740   1.411       .  A
C1739      C1745   1.450       .  S
C1740      C4309   1.407       .  A
C1741      C4308   1.408       .  A
C1741      C1742   1.406       .  A
C1741      C1744   1.449       .  S
C1742      C4303   1.413       .  A
C1742      C1746   1.450       .  S
C1743      N1750   1.157       .  T
C1744      N1751   1.157       .  T
C1745      N1749   1.157       .  T
C1746      N1752   1.157       .  T
C1747      C4297   1.450       .  S
C1747      N1756   1.157       .  T
C1748      N1754   1.157       .  T
C1757      C1758   1.409       .  A
C1757      C1762   1.410       .  A
C1757      C1775   1.451       .  S
C1758      C4327   1.412   1_455  A
C1758      C1763   1.503       .  S
C1759      C4326   1.414       .  A
C1759      C1760   1.417       .  A
C1759      C1764   1.450       .  S
C1760      C1761   1.416       .  A
C1760      C1776   1.449       .  S
C1761      C4330   1.415       .  A
C1762      C4329   1.416       .  A
C1762      C1765   1.447       .  S
C1763      C4334   1.414   1_455  A
C1763      C1770   1.411       .  A
C1764      N1781   1.157       .  T
C1765      N1783   1.155       .  T
C1766      C4331   1.415       .  A
C1766      C1767   1.415       .  A
C1766      C1771   1.449       .  S
C1767      C4336   1.412       .  A
C1767      C1773   1.449       .  S
C1768      C4335   1.413   1_455  A
C1768      C1769   1.414       .  A
C1769      C1770   1.410       .  A
C1769      C1772   1.451       .  S
C1770      C1774   1.451       .  S
C1771      N1778   1.157       .  T
C1772      N1779   1.157       .  T
C1773      N1777   1.157       .  T
C1774      N1780   1.157       .  T
C1775      N1784   1.157       .  T
C1776      N1782   1.157       .  T
C1785      C1790   1.408       .  A
C1785      C1803   1.450       .  S
C1786      C1787   1.410       .  A
C1786      C1791   1.492       .  S
C1787      C1788   1.407       .  A
C1787      C1792   1.451   1_545  S
C1788      C1789   1.411       .  A
C1788      C1804   1.450   1_545  S
C1790      C1793   1.450       .  S
C1791      C1798   1.401       .  A
C1792      N1809   1.157       .  T
C1793      N1811   1.157       .  T
C1794      C1795   1.414       .  A
C1794      C1799   1.451       .  S
C1795      C1796   1.423       .  A
C1795      C1801   1.450       .  S
C1797      C1798   1.406       .  A
C1797      C1800   1.455       .  S
C1798      C1802   1.454       .  S
C1799      N1806   1.157       .  T
C1800      N1807   1.158       .  T
C1801      N1805   1.157       .  T
C1802      N1808   1.157       .  T
C1803      N1812   1.157       .  T
C1804      N1810   1.157       .  T
C1813      C1814   1.411       .  A
C1813      C1818   1.408       .  A
C1813      C1831   1.451       .  S
C1814      C1819   1.492       .  S
C1815      C1816   1.409       .  A
C1815      C1820   1.450       .  S
C1816      C1817   1.413   1_565  A
C1816      C1832   1.451       .  S
C1818      C1821   1.451       .  S
C1819      C1826   1.408       .  A
C1820      N1837   1.157       .  T
C1821      N1839   1.157       .  T
C1822      C1823   1.408       .  A
C1822      C1827   1.454       .  S
C1823      C1829   1.451       .  S
C1824      C1825   1.421       .  A
C1825      C1826   1.412       .  A
C1825      C1828   1.450       .  S
C1826      C1830   1.451       .  S
C1827      N1834   1.157       .  T
C1828      N1835   1.157       .  T
C1829      N1833   1.157       .  T
C1830      N1836   1.157       .  T
C1831      N1840   1.157       .  T
C1832      N1838   1.157       .  T
C1841      C1846   1.408       .  A
C1841      C1859   1.454       .  S
C1842      C1843   1.410       .  A
C1842      C1847   1.493       .  S
C1843      C1844   1.415       .  A
C1843      C1848   1.451       .  S
C1844      C1860   1.450       .  S
C1845      C1846   1.429       .  A
C1846      C1849   1.451       .  S
C1847      C1854   1.412   1_545  A
C1848      N1865   1.157       .  T
C1849      N1867   1.157       .  T
C1850      C1851   1.410       .  A
C1850      C1855   1.450       .  S
C1851      C1857   1.450       .  S
C1852      C1853   1.410   1_545  A
C1853      C1854   1.407       .  A
C1853      C1856   1.451       .  S
C1854      C1858   1.450       .  S
C1855      N1862   1.157       .  T
C1856      N1863   1.157       .  T
C1857      N1861   1.157       .  T
C1858      N1864   1.157       .  T
C1859      N1868   1.157       .  T
C1860      N1866   1.157   1_545  T
C1869      C1870   1.410       .  A
C1869      C1874   1.407       .  A
C1869      C1887   1.451       .  S
C1870      C1875   1.493       .  S
C1871      C1872   1.412       .  A
C1871      C1876   1.450       .  S
C1872      C1873   1.414   1_565  A
C1872      C1888   1.450       .  S
C1874      C1877   1.451       .  S
C1875      C1878   1.409       .  A
C1876      N1893   1.157       .  T
C1877      N1895   1.157       .  T
C1878      C1879   1.414       .  A
C1878      C1883   1.452       .  S
C1879      C1880   1.423       .  A
C1879      C1885   1.450       .  S
C1881      C1882   1.410       .  A
C1881      C1884   1.454       .  S
C1882      C1886   1.454       .  S
C1883      N1890   1.157       .  T
C1884      N1891   1.158       .  T
C1885      N1889   1.158       .  T
C1886      N1892   1.157       .  T
C1887      N1896   1.157       .  T
C1888      N1894   1.157       .  T
C1897      C4466   1.413       .  A
C1897      C1902   1.413       .  A
C1897      C1915   1.451       .  S
C1898      C4465   1.414       .  A
C1898      C1899   1.412       .  A
C1898      C4471   1.500       .  S
C1899      C1900   1.406       .  A
C1899      C1904   1.453       .  S
C1900      C1901   1.413       .  A
C1900      C1916   1.449       .  S
C1901      C4470   1.413       .  A
C1902      C4469   1.415       .  A
C1902      C1905   1.449       .  S
C1903      C1906   1.415       .  A
C1903      C4478   1.410   1_455  A
C1903      C4466   1.499       .  S
C1904      N1921   1.157       .  T
C1905      N1923   1.157       .  T
C1906      C1907   1.415       .  A
C1906      C1911   1.450       .  S
C1907      C1908   1.414       .  A
C1907      C1913   1.450       .  S
C1908      C4477   1.416   1_455  A
C1909      C4476   1.415       .  A
C1909      C1910   1.406       .  A
C1909      C1912   1.451       .  S
C1910      C4471   1.412       .  A
C1910      C1914   1.452       .  S
C1911      N1918   1.157       .  T
C1912      N1919   1.157       .  T
C1913      N1917   1.157       .  T
C1914      N1920   1.157       .  T
C1915      N1924   1.157       .  T
C1916      N1922   1.156       .  T
C1925      C4494   1.414       .  A
C1925      C1930   1.409       .  A
C1925      C1943   1.450       .  S
C1926      C4493   1.415   1_455  A
C1926      C1927   1.418       .  A
C1926      C1931   1.511       .  S
C1927      C1928   1.417       .  A
C1927      C1932   1.450       .  S
C1928      C4497   1.411   1_455  A
C1928      C1944   1.450       .  S
C1929      C4496   1.408       .  A
C1929      C1930   1.408       .  A
C1930      C1933   1.449       .  S
C1931      C1934   1.417       .  A
C1931      C4506   1.416   1_455  A
C1932      N1949   1.157       .  T
C1933      N1951   1.157       .  T
C1934      C1935   1.414       .  A
C1934      C1939   1.449       .  S
C1935      C1936   1.412       .  A
C1935      C1941   1.450       .  S
C1936      C4505   1.414   1_455  A
C1937      C4504   1.416       .  A
C1937      C1938   1.409       .  A
C1937      C1940   1.450       .  S
C1938      C4499   1.412       .  A
C1938      C1942   1.452       .  S
C1939      N1946   1.157       .  T
C1940      N1947   1.157       .  T
C1941      N1945   1.157       .  T
C1942      N1948   1.157       .  T
C1943      N1952   1.157       .  T
C1944      N1950   1.157       .  T
C1953      C1954   1.410       .  A
C1953      C1958   1.410       .  A
C1953      C1971   1.451       .  S
C1954      C1955   1.412       .  A
C1954      C1959   1.503       .  S
C1955      C1956   1.414       .  A
C1955      C1960   1.451       .  S
C1956      C1957   1.417       .  A
C1956      C1972   1.450       .  S
C1957      C1958   1.417       .  A
C1958      C1961   1.450       .  S
C1959      C1962   1.398       .  A
C1959      C1966   1.402       .  A
C1960      N1977   1.157       .  T
C1961      N1979   1.157       .  T
C1962      C1963   1.415       .  A
C1962      C1967   1.456       .  S
C1963      C1964   1.453       .  A
C1963      C1969   1.450       .  S
C1964      C4240   1.610   1_455  S
C1964      C1965   1.447       .  A
C1965      C1966   1.418       .  A
C1965      C1968   1.451       .  S
C1966      C1970   1.454       .  S
C1967      N1974   1.157       .  T
C1968      N4543   1.157   1_455  T
C1969      N1973   1.157       .  T
C1970      N1976   1.157       .  T
C1971      N1980   1.157       .  T
C1972      N1978   1.157       .  T
N1975      C4536   1.157       .  T
C1981      C1982   1.414       .  A
C1981      C1986   1.409       .  A
C1981      C1999   1.450       .  S
C1982      C1983   1.415       .  A
C1982      C1987   1.506       .  S
C1983      C1984   1.415       .  A
C1983      C1988   1.450       .  S
C1984      C1985   1.413       .  A
C1984      C2000   1.451       .  S
C1985      C1986   1.410       .  A
C1986      C1989   1.453       .  S
C1987      C1990   1.400       .  A
C1987      C1994   1.400       .  A
C1988      N2005   1.157       .  T
C1989      N2007   1.157       .  T
C1990      C1991   1.420       .  A
C1990      C1995   1.454       .  S
C1991      C1992   1.452       .  A
C1991      C1997   1.451       .  S
C1992      C1993   1.451       .  A
C1993      C1994   1.419       .  A
C1993      C1996   1.447       .  S
C1994      C1998   1.457       .  S
C1995      N2002   1.157       .  T
C1996      N4571   1.157       .  T
C1997      N2001   1.157       .  T
C1998      N2004   1.157       .  T
C1999      N2008   1.157       .  T
C2000      N2006   1.157       .  T
N2003      C4564   1.158   1_455  T
C2009      C2010   1.416       .  A
C2009      C2014   1.414       .  A
C2009      C2027   1.449       .  S
C2010      C2011   1.412       .  A
C2010      C2015   1.504       .  S
C2011      C2012   1.410       .  A
C2011      C2016   1.451       .  S
C2012      C2013   1.415       .  A
C2012      C2028   1.451       .  S
C2013      C2014   1.411       .  A
C2014      C2017   1.450       .  S
C2015      C2018   1.413       .  A
C2015      C2022   1.415       .  A
C2016      N2033   1.157       .  T
C2017      N2035   1.157       .  T
C2018      C2019   1.411       .  A
C2018      C2023   1.451       .  S
C2019      C2020   1.415       .  A
C2019      C2025   1.451       .  S
C2020      C2021   1.414       .  A
C2021      C2022   1.414       .  A
C2021      C2024   1.451       .  S
C2022      C2026   1.450       .  S
C2023      N2030   1.157       .  T
C2024      N2031   1.157       .  T
C2025      N2029   1.157       .  T
C2026      N2032   1.157       .  T
C2027      N2036   1.157       .  T
C2028      N2034   1.157       .  T
C2037      C2038   1.409       .  A
C2037      C2042   1.411       .  A
C2037      C2055   1.452       .  S
C2038      C2039   1.413       .  A
C2038      C2043   1.504       .  S
C2039      C2040   1.416       .  A
C2039      C2044   1.450       .  S
C2040      C2041   1.416       .  A
C2040      C2056   1.450       .  S
C2041      C2042   1.419       .  A
C2042      C2045   1.450       .  S
C2043      C2046   1.413       .  A
C2043      C2050   1.412       .  A
C2044      N2061   1.157       .  T
C2045      N2063   1.157       .  T
C2046      C2047   1.414       .  A
C2046      C2051   1.450       .  S
C2047      C2048   1.414       .  A
C2047      C2053   1.450       .  S
C2048      C2049   1.415       .  A
C2049      C2050   1.411       .  A
C2049      C2052   1.451       .  S
C2050      C2054   1.451       .  S
C2051      N2058   1.157       .  T
C2052      N2059   1.157       .  T
C2053      N2057   1.157       .  T
C2054      N2060   1.157       .  T
C2055      N2064   1.157       .  T
C2056      N2062   1.157       .  T
C2065      C2066   1.411       .  A
C2065      C2070   1.407       .  A
C2065      C2083   1.451       .  S
C2066      C2067   1.410       .  A
C2066      C2071   1.489       .  S
C2067      C2068   1.407       .  A
C2067      C2072   1.451       .  S
C2068      C2069   1.411       .  A
C2068      C2084   1.451       .  S
C2069      C2070   1.411       .  A
C2070      C2073   1.450       .  S
C2071      C2074   1.406       .  A
C2071      C2078   1.402       .  A
C2072      N2089   1.157       .  T
C2073      N2091   1.157       .  T
C2074      C2075   1.413       .  A
C2074      C2079   1.452       .  S
C2075      C2076   1.426       .  A
C2075      C2081   1.450       .  S
C2076      C2077   1.433       .  A
C2077      C2078   1.407       .  A
C2077      C2080   1.454       .  S
C2078      C2082   1.454       .  S
C2079      N2086   1.157       .  T
C2080      N2087   1.158       .  T
C2081      N2085   1.157       .  T
C2082      N2088   1.157       .  T
C2083      N2092   1.157       .  T
C2084      N2090   1.157       .  T
C2093      C2094   1.410       .  A
C2093      C2098   1.413       .  A
C2093      C2111   1.452       .  S
C2094      C2095   1.405       .  A
C2094      C2099   1.495       .  S
C2095      C2096   1.408       .  A
C2095      C2100   1.453       .  S
C2096      C2097   1.427       .  A
C2096      C2112   1.451       .  S
C2097      C2098   1.421       .  A
C2098      C2101   1.450       .  S
C2099      C2102   1.412       .  A
C2099      C2106   1.412       .  A
C2100      N2117   1.157       .  T
C2101      N2119   1.157       .  T
C2102      C2103   1.407       .  A
C2102      C2107   1.451       .  S
C2103      C2104   1.412       .  A
C2103      C2109   1.451       .  S
C2104      C2105   1.411       .  A
C2105      C2106   1.409       .  A
C2105      C2108   1.450       .  S
C2106      C2110   1.451       .  S
C2107      N2114   1.157       .  T
C2108      N2115   1.157       .  T
C2109      N2113   1.157       .  T
C2110      N2116   1.157       .  T
C2111      N2120   1.157       .  T
C2112      N2118   1.157       .  T
C2121      C2122   1.418       .  A
C2121      C2126   1.414       .  A
C2121      C2139   1.451       .  S
C2122      C4691   1.418       .  A
C2122      C2127   1.516       .  S
C2123      C4690   1.416       .  A
C2123      C2124   1.418       .  A
C2123      C2128   1.450       .  S
C2124      C4693   1.415       .  A
C2124      C2140   1.447       .  S
C2125      C4692   1.412       .  A
C2125      C2126   1.414       .  A
C2126      C2129   1.452       .  S
C2127      C2130   1.405       .  A
C2127      C4702   1.407       .  A
C2128      N2145   1.157       .  T
C2129      N2147   1.157       .  T
C2130      C2131   1.416       .  A
C2130      C2135   1.455       .  S
C2131      C2132   1.447       .  A
C2131      C2137   1.449       .  S
C2132      C3889   1.611       .  S
C2132      C4701   1.447       .  A
C2133      C4700   1.452   1_455  A
C2133      C2134   1.420       .  A
C2133      C2136   1.447       .  S
C2134      C4695   1.401   1_455  A
C2134      C2138   1.457       .  S
C2135      N2142   1.157       .  T
C2136      N2143   1.157       .  T
C2137      N2141   1.158       .  T
C2138      N2144   1.157       .  T
C2139      N2148   1.157       .  T
C2140      N2146   1.156       .  T
C2149      C4718   1.414   1_455  A
C2149      C2154   1.415       .  A
C2149      C2167   1.450       .  S
C2150      C4717   1.416       .  A
C2150      C2151   1.420       .  A
C2150      C2155   1.519       .  S
C2151      C2152   1.419       .  A
C2151      C2156   1.449       .  S
C2152      C2153   1.411       .  A
C2152      C2168   1.450       .  S
C2153      C4722   1.413       .  A
C2154      C4721   1.412   1_455  A
C2154      C2157   1.449       .  S
C2155      C2158   1.406       .  A
C2155      C2162   1.405       .  A
C2156      N2173   1.157       .  T
C2157      N2175   1.157       .  T
C2158      C2159   1.421       .  A
C2158      C2163   1.454       .  S
C2159      C2160   1.447       .  A
C2159      C2165   1.447       .  S
C2160      C3889   1.619       .  S
C2160      C2161   1.450       .  A
C2161      C2162   1.423       .  A
C2161      C4732   1.450       .  S
C2162      C2166   1.454       .  S
C2163      N2170   1.157       .  T
C2164      C4729   1.448   1_455  S
C2164      N2171   1.158       .  T
C2165      N2169   1.157       .  T
C2166      N2172   1.157       .  T
C2167      N2176   1.157       .  T
C2168      N2174   1.157       .  T
C2177      C2178   1.420       .  A
C2177      C2182   1.419       .  A
C2177      C2195   1.448       .  S
C2178      C2179   1.415       .  A
C2178      C2183   1.521       .  S
C2179      C2180   1.416       .  A
C2179      C2184   1.450       .  S
C2180      C2181   1.414       .  A
C2180      C2196   1.451       .  S
C2181      C2182   1.411       .  A
C2182      C2185   1.451       .  S
C2183      C2186   1.407       .  A
C2183      C2190   1.401       .  A
C2184      N2201   1.157       .  T
C2185      N2203   1.157       .  T
C2186      C2187   1.426       .  A
C2186      C2191   1.455       .  S
C2187      C2188   1.450       .  A
C2187      C2193   1.448       .  S
C2188      C2189   1.453       .  A
C2189      C2190   1.424       .  A
C2189      C2192   1.449       .  S
C2190      C2194   1.454       .  S
C2191      N2198   1.157       .  T
C2192      N2199   1.157       .  T
C2193      N4765   1.158   1_455  T
C2194      N2200   1.157       .  T
C2195      N2204   1.157       .  T
C2196      N2202   1.157       .  T
N2197      C4761   1.157       .  T
C2205      C2206   1.401       .  A
C2205      C2210   1.414       .  A
C2205      C2223   1.455       .  S
C2206      C2207   1.406       .  A
C2206      C2211   1.515       .  S
C2207      C2208   1.423       .  A
C2207      C2212   1.453       .  S
C2208      C2209   1.448       .  A
C2208      C2224   1.450       .  S
C2209      C3889   1.614       .  S
C2209      C2210   1.447       .  A
C2210      C2213   1.447       .  S
C2211      C2214   1.415       .  A
C2211      C2218   1.416       .  A
C2212      N2229   1.157       .  T
C2213      N2231   1.157       .  T
C2214      C2215   1.417       .  A
C2214      C2219   1.450       .  S
C2215      C2216   1.414       .  A
C2215      C2221   1.448       .  S
C2216      C2217   1.415       .  A
C2217      C2218   1.414       .  A
C2217      C2220   1.451       .  S
C2218      C2222   1.452       .  S
C2219      N2226   1.157       .  T
C2220      N2227   1.157       .  T
C2221      N2225   1.157       .  T
C2222      N2228   1.157       .  T
C2223      N2232   1.157       .  T
C2224      N2230   1.157       .  T
C2233      C2234   1.400       .  A
C2233      C2238   1.418       .  A
C2233      C2251   1.456       .  S
C2234      C2239   1.512       .  S
C2235      C2236   1.425       .  A
C2235      C2240   1.453       .  S
C2236      C2252   1.447       .  S
C2237      C2238   1.451       .  A
C2238      C2241   1.446       .  S
C2239      C2246   1.408       .  A
C2240      N2257   1.157       .  T
C2241      N2259   1.156       .  T
C2242      C2243   1.419       .  A
C2242      C2247   1.448   1_545  S
C2243      C2249   1.451   1_545  S
C2244      C2245   1.429       .  A
C2245      C2246   1.413       .  A
C2245      C2248   1.452       .  S
C2246      C2250   1.454       .  S
C2247      N2254   1.157       .  T
C2248      N2255   1.157       .  T
C2249      N2253   1.158       .  T
C2250      N2256   1.157       .  T
C2251      N2260   1.157       .  T
C2252      N2258   1.157       .  T
C2261      C2266   1.417       .  A
C2261      C2279   1.455       .  S
C2262      C2263   1.400       .  A
C2262      C2267   1.507       .  S
C2263      C2264   1.419       .  A
C2263      C2268   1.454       .  S
C2264      C2265   1.449       .  A
C2264      C2280   1.448       .  S
C2266      C2269   1.447       .  S
C2267      C2270   1.417       .  A
C2268      N2285   1.157       .  T
C2269      N2287   1.157       .  T
C2270      C2271   1.417       .  A
C2270      C2275   1.449       .  S
C2271      C2272   1.413       .  A
C2271      C2277   1.451       .  S
C2273      C2274   1.407       .  A
C2273      C2276   1.450       .  S
C2274      C2278   1.453       .  S
C2275      N2282   1.157       .  T
C2276      N2283   1.157       .  T
C2277      N2281   1.157       .  T
C2278      N2284   1.157       .  T
C2279      N2288   1.157       .  T
C2280      N2286   1.157       .  T
C2289      C2290   1.399       .  A
C2289      C2294   1.416       .  A
C2289      C2307   1.456       .  S
C2290      C2291   1.403       .  A
C2290      C2295   1.505       .  S
C2291      C2292   1.421       .  A
C2291      C2296   1.453       .  S
C2292      C2293   1.446       .  A
C2292      C2308   1.449       .  S
C2293      C2294   1.450       .  A
C2294      C2297   1.447       .  S
C2295      C2298   1.408       .  A
C2295      C2302   1.414       .  A
C2296      N2313   1.157       .  T
C2297      N2315   1.157       .  T
C2298      C2299   1.408       .  A
C2298      C2303   1.452       .  S
C2299      C2300   1.420       .  A
C2299      C2305   1.449       .  S
C2300      C2301   1.417       .  A
C2301      C2302   1.418       .  A
C2301      C2304   1.449       .  S
C2302      C2306   1.448       .  S
C2303      N2310   1.157       .  T
C2304      N2311   1.158       .  T
C2305      N2309   1.157       .  T
C2306      N2312   1.157       .  T
C2307      N2316   1.157       .  T
C2308      N2314   1.157       .  T
C2317      C2318   1.402       .  A
C2317      C2322   1.423       .  A
C2317      C2335   1.455       .  S
C2318      C2319   1.402       .  A
C2318      C2323   1.515       .  S
C2319      C2320   1.424       .  A
C2319      C2324   1.454       .  S
C2320      C2321   1.451       .  A
C2320      C2336   1.449       .  S
C2321      C2322   1.450       .  A
C2322      C2325   1.445       .  S
C2323      C2326   1.412       .  A
C2323      C2330   1.415       .  A
C2324      N2341   1.157       .  T
C2325      N2343   1.157       .  T
C2326      C2327   1.414       .  A
C2326      C2331   1.451       .  S
C2327      C2328   1.418       .  A
C2327      C2333   1.450       .  S
C2328      C2329   1.415       .  A
C2329      C2330   1.419       .  A
C2329      C2332   1.449       .  S
C2330      C2334   1.448       .  S
C2331      N2338   1.157       .  T
C2332      N2339   1.157       .  T
C2333      N2337   1.157       .  T
C2334      N2340   1.157       .  T
C2335      N2344   1.157       .  T
C2336      N2342   1.157   1_565  T
C2345      C2346   1.412       .  A
C2345      C2350   1.415       .  A
C2345      C2363   1.452       .  S
C2346      C2347   1.406       .  A
C2346      C2351   1.500       .  S
C2347      C2348   1.410       .  A
C2347      C2352   1.453       .  S
C2348      C2349   1.425       .  A
C2348      C2364   1.450       .  S
C2349      C2350   1.422       .  A
C2350      C2353   1.450       .  S
C2351      C2354   1.414       .  A
C2351      C2358   1.413       .  A
C2352      N2369   1.157       .  T
C2353      N2371   1.157       .  T
C2354      C2355   1.409       .  A
C2354      C2359   1.450       .  S
C2355      C2356   1.412       .  A
C2355      C2361   1.451       .  S
C2356      C2357   1.410       .  A
C2357      C2358   1.410       .  A
C2357      C2360   1.450       .  S
C2358      C2362   1.450       .  S
C2359      N2366   1.157       .  T
C2360      N2367   1.157       .  T
C2361      N2365   1.157       .  T
C2362      N2368   1.157       .  T
C2363      N2372   1.157       .  T
C2364      N2370   1.156       .  T
C2373      C2374   1.405       .  A
C2373      C2378   1.407       .  A
C2373      C2391   1.454       .  S
C2374      C2375   1.407       .  A
C2374      C2379   1.493       .  S
C2375      C2376   1.412       .  A
C2375      C2380   1.451       .  S
C2376      C2377   1.426       .  A
C2376      C2392   1.451       .  S
C2377      C2378   1.428       .  A
C2378      C2381   1.453       .  S
C2379      C2382   1.411       .  A
C2379      C2386   1.412       .  A
C2380      N2397   1.157       .  T
C2381      N2399   1.157       .  T
C2382      C2383   1.408       .  A
C2382      C2387   1.451       .  S
C2383      C2384   1.412       .  A
C2383      C2389   1.451       .  S
C2384      C2385   1.410       .  A
C2385      C2386   1.408       .  A
C2385      C2388   1.450       .  S
C2386      C2390   1.451       .  S
C2387      N2394   1.157       .  T
C2388      N2395   1.157       .  T
C2389      N2393   1.157       .  T
C2390      N2396   1.157       .  T
C2391      N2400   1.157       .  T
C2392      N2398   1.158       .  T
C2401      C2402   1.412       .  A
C2401      C2406   1.410       .  A
C2401      C2419   1.451       .  S
C2402      C2403   1.414       .  A
C2402      C2407   1.502       .  S
C2403      C2404   1.411       .  A
C2403      C2408   1.450       .  S
C2404      C2405   1.412       .  A
C2404      C2420   1.450       .  S
C2405      C2406   1.415       .  A
C2406      C2409   1.450       .  S
C2407      C2410   1.415       .  A
C2407      C2414   1.412       .  A
C2408      N2425   1.157       .  T
C2409      N2427   1.156       .  T
C2410      C2411   1.414       .  A
C2410      C2415   1.452       .  S
C2411      C2412   1.414       .  A
C2411      C2417   1.449       .  S
C2412      C2413   1.416       .  A
C2413      C2414   1.411       .  A
C2413      C2416   1.451       .  S
C2414      C2418   1.451       .  S
C2415      N2422   1.157       .  T
C2416      N2423   1.157       .  T
C2417      N2421   1.157       .  T
C2418      N2424   1.157       .  T
C2419      N2428   1.157       .  T
C2420      N2426   1.157       .  T
C2429      C2430   1.409       .  A
C2429      C2434   1.412       .  A
C2429      C2447   1.452       .  S
C2430      C2431   1.412       .  A
C2430      C2435   1.503       .  S
C2431      C2432   1.416       .  A
C2431      C2436   1.450       .  S
C2432      C2433   1.416       .  A
C2432      C2448   1.449       .  S
C2433      C2434   1.419       .  A
C2434      C2437   1.449       .  S
C2435      C2438   1.413       .  A
C2435      C2442   1.410       .  A
C2436      N2453   1.157       .  T
C2437      N2455   1.156       .  T
C2438      C2439   1.416       .  A
C2438      C2443   1.450       .  S
C2439      C2440   1.415       .  A
C2439      C2445   1.450       .  S
C2440      C2441   1.417       .  A
C2441      C2442   1.410       .  A
C2441      C2444   1.452       .  S
C2442      C2446   1.451       .  S
C2443      N2450   1.157       .  T
C2444      N2451   1.157       .  T
C2445      N2449   1.157       .  T
C2446      N2452   1.157       .  T
C2447      N2456   1.157       .  T
C2448      N2454   1.157       .  T
C2457      C2462   1.418       .  A
C2457      C2475   1.451       .  S
C2458      C2459   1.413       .  A
C2458      C2463   1.510       .  S
C2459      C2460   1.410       .  A
C2459      C2464   1.450       .  S
C2460      C2461   1.416       .  A
C2460      C2476   1.452       .  S
C2462      C2465   1.448       .  S
C2463      C2470   1.405       .  A
C2464      N2481   1.157       .  T
C2465      N2483   1.157       .  T
C2466      C2467   1.417       .  A
C2466      C2471   1.456       .  S
C2467      C2473   1.450       .  S
C2468      C2469   1.446       .  A
C2469      C2470   1.424       .  A
C2469      C2472   1.449       .  S
C2470      C2474   1.453       .  S
C2471      N2478   1.157       .  T
C2472      N2479   1.157       .  T
C2473      N2477   1.157       .  T
C2474      N2480   1.157       .  T
C2475      N2484   1.157       .  T
C2476      N2482   1.157       .  T
C2485      C2490   1.418       .  A
C2485      C2503   1.457       .  S
C2486      C2487   1.402       .  A
C2486      C2491   1.509       .  S
C2487      C2488   1.420       .  A
C2487      C2492   1.454       .  S
C2488      C2489   1.449       .  A
C2488      C2504   1.451       .  S
C2490      C2493   1.447   1_545  S
C2491      C2494   1.415       .  A
C2492      N2509   1.157       .  T
C2493      N2511   1.158       .  T
C2494      C2495   1.410       .  A
C2494      C2499   1.450       .  S
C2495      C2496   1.412       .  A
C2495      C2501   1.453       .  S
C2497      C2498   1.410       .  A
C2497      C2500   1.451       .  S
C2498      C2502   1.450       .  S
C2499      N2506   1.157       .  T
C2500      N2507   1.157       .  T
C2501      N2505   1.157       .  T
C2502      N2508   1.157       .  T
C2503      N2512   1.157   1_545  T
C2504      N2510   1.157       .  T
C2513      C2514   1.411       .  A
C2513      C2518   1.414       .  A
C2513      C2531   1.451       .  S
C2514      C2515   1.412       .  A
C2514      C2519   1.511       .  S
C2515      C2516   1.419       .  A
C2515      C2520   1.452       .  S
C2516      C2517   1.424       .  A
C2516      C2532   1.450       .  S
C2517      C2518   1.421       .  A
C2518      C2521   1.451       .  S
C2519      C2522   1.404       .  A
C2519      C2526   1.399       .  A
C2520      N2537   1.157       .  T
C2521      N2539   1.157       .  T
C2522      C2523   1.425       .  A
C2522      C2527   1.453       .  S
C2523      C2524   1.448       .  A
C2523      C2529   1.448       .  S
C2524      C2525   1.451       .  A
C2525      C2526   1.416       .  A
C2525      C2528   1.447       .  S
C2526      C2530   1.456       .  S
C2527      N2534   1.157       .  T
C2528      N2535   1.157       .  T
C2529      N2533   1.157       .  T
C2530      N2536   1.157       .  T
C2531      N2540   1.157       .  T
C2532      N2538   1.158       .  T
C2541      C2542   1.403       .  A
C2541      C2546   1.417       .  A
C2541      C2559   1.456       .  S
C2542      C2543   1.397       .  A
C2542      C2547   1.502       .  S
C2543      C2544   1.414       .  A
C2543      C2548   1.455       .  S
C2544      C2545   1.452       .  A
C2544      C2560   1.449       .  S
C2545      C2546   1.448       .  A
C2546      C2549   1.445       .  S
C2547      C2550   1.415       .  A
C2547      C2554   1.411       .  A
C2548      N2565   1.157       .  T
C2549      N2567   1.157   1_565  T
C2550      C2551   1.413       .  A
C2550      C2555   1.451       .  S
C2551      C2552   1.411       .  A
C2551      C2557   1.449       .  S
C2552      C2553   1.415       .  A
C2553      C2554   1.409       .  A
C2553      C2556   1.451       .  S
C2554      C2558   1.452       .  S
C2555      N2562   1.157       .  T
C2556      N2563   1.157       .  T
C2557      N2561   1.157       .  T
C2558      N2564   1.157       .  T
C2559      N2568   1.157       .  T
C2560      N2566   1.157       .  T
C2569      C5036   1.607       .  S
C2569      C5057   1.612       .  S
C2569      C5092   1.615       .  S
C2569      C3829   1.607       .  S
N2570      H2602   1.037       .  S
N2570      C2574   1.350       .  A
N2571      C2578   1.347   1_554  A
N2571      C2579   1.350       .  A
N2572      H2603   1.037       .  S
N2572      C2576   1.353       .  A
N2573      C2580   1.349   1_554  A
N2573      C2581   1.348       .  A
C2574      C2582   1.387       .  A
C2574      C2590   1.412       .  A
C2575      C2591   1.410       .  A
C2575      C2583   1.386       .  A
C2576      C2584   1.388       .  A
C2576      C2593   1.414       .  A
C2577      C2592   1.413       .  A
C2577      C2585   1.389       .  A
C2578      C2590   1.410       .  A
C2578      C2586   1.387       .  A
C2579      C2593   1.410       .  A
C2579      C2587   1.385       .  A
C2580      C2588   1.385       .  A
C2580      C2591   1.410       .  A
C2581      C2589   1.386       .  A
C2581      C2592   1.411       .  A
C2582      H2594   1.082       .  S
C2583      H2595   1.082       .  S
C2584      H2596   1.082       .  S
C2585      H2597   1.082       .  S
C2586      C2587   1.375   1_556  A
C2586      H2598   1.082       .  S
C2587      H2599   1.082       .  S
C2588      C2589   1.379   1_556  A
C2588      H2600   1.082       .  S
C2589      H2601   1.082       .  S
C2590      C3724   1.484       .  S
C2591      C3696   1.492       .  S
C2592      C3640   1.489       .  S
C2593      C3668   1.492       .  S
C2604      C4805   1.616       .  S
C2604      C4833   1.617       .  S
C2604      C4861   1.614       .  S
C2604      C3605   1.615       .  S
C2605      C3472   1.610       .  S
N2606      H2638   1.039       .  S
N2606      C2611   1.351       .  A
N2606      C3894   1.354       .  A
N2607      C2614   1.352   1_554  A
N2607      C2615   1.350       .  A
N2608      H2639   1.039       .  S
N2608      C2613   1.354       .  A
N2608      C3896   1.350       .  A
N2609      C2616   1.348   1_554  A
N2609      C2617   1.351       .  A
C2610      N3890   1.351   1_545  A
C2610      C2618   1.386       .  A
C2610      C2626   1.412       .  A
C2611      C2627   1.417       .  A
C2611      C2619   1.389       .  A
C2612      N3892   1.352   1_545  A
C2612      C2620   1.389       .  A
C2612      C2629   1.416       .  A
C2613      C2628   1.413       .  A
C2613      C2621   1.386       .  A
C2614      C2626   1.412       .  A
C2614      C2622   1.385       .  A
C2615      C2629   1.413       .  A
C2615      C2623   1.386       .  A
C2616      C2624   1.387       .  A
C2616      C2627   1.412       .  A
C2617      C2625   1.385       .  A
C2617      C2628   1.411       .  A
C2618      C3903   1.376   1_545  A
C2618      H2630   1.082       .  S
C2619      C3902   1.376       .  A
C2619      H2631   1.082       .  S
C2620      C3905   1.372   1_545  A
C2620      H2632   1.082       .  S
C2621      C3904   1.371       .  A
C2621      H2633   1.082       .  S
C2622      C2623   1.376   1_556  A
C2622      H2634   1.082       .  S
C2623      H2635   1.082       .  S
C2624      C2625   1.377   1_556  A
C2624      H2636   1.082       .  S
C2625      H2637   1.082       .  S
C2626      C3353   1.498       .  S
C2627      C3388   1.493       .  S
C2628      C3332   1.500       .  S
C2629      C3297   1.492       .  S
O2640     Zr2652   2.474       .  S
O2640      C2642   1.294       .  A
O2641     Zr2678   2.395       .  S
O2641      C2642   1.280       .  A
C2642      C3717   1.514       .  S
O2643     Zr2655   2.469       .  S
O2643      C2645   1.294       .  A
O2644     Zr2679   2.443       .  S
O2644      C2645   1.290       .  A
C2645      C3612   1.513       .  S
O2646     Zr2655   2.465       .  S
O2646      C2648   1.291       .  A
O2647     Zr2678   2.398       .  S
O2647      C2648   1.281       .  A
C2648      C3381   1.476       .  S
O2649     Zr2652   2.434       .  S
O2649      C2651   1.286       .  A
O2650     Zr2679   2.462       .  S
O2650      C2651   1.294       .  A
C2651      C3500   1.491       .  S
Zr2652     O2653   2.434       .  S
Zr2652     O2654   2.435       .  S
Zr2652     O2658   2.361       .  S
Zr2652     O2659   2.380       .  S
Zr2652     O2682   2.384       .  S
Zr2652     O2684   2.365       .  S
O2653      H2696   0.990       .  S
O2654      H2695   0.990       .  S
O2654      H2699   0.990       .  S
Zr2655     O2656   2.428       .  S
Zr2655     O2657   2.434       .  S
Zr2655     O2659   2.375       .  S
Zr2655     O2658   2.372       .  S
Zr2655     O2683   2.375       .  S
Zr2655     O2685   2.373       .  S
O2656      H2697   0.989       .  S
O2656      H2700   0.990       .  S
O2657      H2690   0.990       .  S
O2658     Zr2678   2.376       .  S
O2659     Zr2679   2.399       .  S
O2659      H2686   0.965       .  S
O2660     Zr2672   2.438       .  S
O2660      C2662   1.288       .  A
O2661     Zr2679   2.449       .  S
O2661      C2662   1.292       .  A
C2662      C3584   1.499       .  S
O2663     Zr2675   2.474       .  S
O2663      C2665   1.294       .  A
O2664     Zr2678   2.409       .  S
O2664      C2665   1.284       .  A
C2665      C3689   1.498       .  S
O2666     Zr2675   2.429       .  S
O2666      C2668   1.285       .  A
O2667     Zr2679   2.467       .  S
O2667      C2668   1.294       .  A
C2668      C3465   1.493       .  S
O2669     Zr2672   2.454       .  S
O2669      C2671   1.289       .  A
O2670     Zr2678   2.425       .  S
O2670      C2671   1.287       .  A
C2671      C3360   1.494       .  S
Zr2672     O2673   2.429       .  S
Zr2672     O2674   2.433       .  S
Zr2672     O2680   2.383       .  S
Zr2672     O2681   2.375       .  S
Zr2672     O2684   2.363       .  S
Zr2672     O2682   2.375       .  S
O2673      H2693   0.989       .  S
O2673      H2698   0.990       .  S
O2674      H2694   0.990       .  S
Zr2675     O2676   2.434       .  S
Zr2675     O2677   2.435       .  S
Zr2675     O2681   2.370       .  S
Zr2675     O2680   2.380       .  S
Zr2675     O2685   2.384       .  S
Zr2675     O2683   2.362       .  S
O2676      H2692   0.990       .  S
O2677      H2691   0.990       .  S
O2677      H2701   0.990       .  S
Zr2678     O2681   2.366       .  S
Zr2678     O2683   2.380       .  S
Zr2678     O2684   2.371       .  S
Zr2679     O2680   2.399       .  S
Zr2679     O2682   2.393       .  S
Zr2679     O2685   2.391       .  S
O2680      H2688   0.966       .  S
O2683      H2687   0.966       .  S
O2684      H2689   0.966       .  S
O2702     Zr2714   2.417       .  S
O2702      C2704   1.283       .  A
O2703     Zr2740   2.444       .  S
O2703      C2704   1.290       .  A
C2704      C3269   1.475       .  S
O2705     Zr2717   2.465       .  S
O2705      C2707   1.292       .  A
O2706     Zr2741   2.411       .  S
O2706      C2707   1.284       .  A
C2707      C3325   1.487       .  S
O2708     Zr2717   2.448       .  S
O2708      C2710   1.289       .  A
O2709     Zr2740   2.441       .  S
O2709      C2710   1.289       .  A
C2710      C3836   1.486       .  S
O2711     Zr2714   2.461       .  S
O2711      C2713   1.291       .  A
O2712     Zr2741   2.396       .  S
O2712      C2713   1.280       .  A
C2713      C3661   1.506       .  S
Zr2714     O2715   2.434       .  S
Zr2714     O2716   2.434       .  S
Zr2714     O2720   2.389       .  S
Zr2714     O2721   2.359       .  S
Zr2714     O2744   2.360       .  S
Zr2714     O2746   2.370       .  S
O2715      H2758   0.990       .  S
O2716      H2757   0.990       .  S
O2716      H2761   0.990       .  S
Zr2717     O2718   2.435       .  S
Zr2717     O2719   2.433       .  S
Zr2717     O2721   2.372       .  S
Zr2717     O2720   2.375       .  S
Zr2717     O2745   2.379       .  S
Zr2717     O2747   2.375       .  S
O2718      H2759   0.990       .  S
O2718      H2762   0.990       .  S
O2719      H2752   0.990       .  S
O2720     Zr2740   2.389       .  S
O2721     Zr2741   2.369       .  S
O2721      H2748   0.966       .  S
O2722     Zr2734   2.457       .  S
O2722      C2724   1.291       .  A
O2723     Zr2741   2.411       .  S
O2723      C2724   1.284       .  A
C2724      C3304   1.493       .  S
O2725     Zr2737   2.444       .  S
O2725      C2727   1.289       .  A
O2726     Zr2740   2.440       .  S
O2726      C2727   1.290       .  A
C2727      C3241   1.492       .  S
O2728     Zr2737   2.470       .  S
O2728      C2730   1.293       .  A
O2729     Zr2741   2.400       .  S
O2729      C2730   1.282       .  A
C2730      C3633   1.505       .  S
O2731     Zr2734   2.449       .  S
O2731      C2733   1.290       .  A
O2732     Zr2740   2.440       .  S
O2732      C2733   1.289       .  A
C2733      C3801   1.508       .  S
Zr2734     O2735   2.435       .  S
Zr2734     O2736   2.433       .  S
Zr2734     O2742   2.373       .  S
Zr2734     O2743   2.368       .  S
Zr2734     O2746   2.375       .  S
Zr2734     O2744   2.372       .  S
O2735      H2755   0.990       .  S
O2735      H2760   0.990       .  S
O2736      H2756   0.990       .  S
Zr2737     O2738   2.432       .  S
Zr2737     O2739   2.433       .  S
Zr2737     O2743   2.382       .  S
Zr2737     O2742   2.361       .  S
Zr2737     O2747   2.372       .  S
Zr2737     O2745   2.368       .  S
O2738      H2754   0.990       .  S
O2739      H2753   0.990       .  S
O2739      H2763   0.990       .  S
Zr2740     O2743   2.386       .  S
Zr2740     O2745   2.392       .  S
Zr2740     O2746   2.390       .  S
Zr2741     O2742   2.372       .  S
Zr2741     O2744   2.372       .  S
Zr2741     O2747   2.374       .  S
O2742      H2750   0.966       .  S
O2745      H2749   0.964       .  S
O2746      H2751   0.965       .  S
O2764     Zr2776   2.431       .  S
O2764      C2766   1.286       .  A
O2765     Zr4086   2.469       .  S
O2765      C2766   1.295       .  A
C2766      C3437   1.498       .  S
O2767     Zr2779   2.481       .  S
O2767      C2769   1.294       .  A
O2768      C2769   1.282       .  A
C2769      C3129   1.513       .  S
O2770     Zr2779   2.428       .  S
O2770      C2772   1.286       .  A
O2771      C2772   1.293       .  A
C2772      C3556   1.509       .  S
O2773     Zr2776   2.443       .  S
O2773      C2775   1.287       .  A
O2774     Zr4087   2.412       .  S
O2774      C2775   1.283       .  A
C2775      C3213   1.475       .  S
Zr2776     O2778   2.436       .  S
Zr2776     O2806   2.366       .  S
Zr2776     O2808   2.373       .  S
O2777      H2820   0.990       .  S
O2778      H2819   0.990       .  S
O2778      H2823   0.990       .  S
Zr2779     O4064   2.437       .  S
Zr2779     O2781   2.434   1_565  S
Zr2779     O4067   2.361       .  S
Zr2779     O4066   2.384       .  S
Zr2779     O2807   2.391   1_565  S
Zr2779     O2809   2.365   1_565  S
O2780     Zr4063   2.438       .  S
O2780      H2821   0.989       .  S
O2780      H2824   0.989       .  S
O2781      H2814   0.990       .  S
O2782     Zr4063   2.382       .  S
O2783     Zr4063   2.358       .  S
O2783      H2810   0.963       .  S
O2784     Zr2796   2.488   1_565  S
O2784      C2786   1.296       .  A
O2785     Zr2803   2.364   1_655  S
O2785      C2786   1.273   1_545  A
C2786      C3164   1.512       .  S
O2787     Zr2799   2.414       .  S
O2787      C2789   1.282       .  A
O2788     Zr2802   2.466       .  S
O2788      C2789   1.294       .  A
C2789      C3409   1.487       .  S
O2790     Zr2799   2.435   1_455  S
O2790      C2792   1.286   1_455  A
O2791     Zr2803   2.414   1_655  S
O2791      C2792   1.284       .  A
C2792      C3185   1.479       .  S
O2793     Zr2796   2.435       .  S
O2793      C2795   1.288       .  A
O2794     Zr2802   2.461       .  S
O2794      C2795   1.294       .  A
C2795      C3528   1.501       .  S
Zr2796     O2797   2.435       .  S
Zr2796     O4082   2.432   1_545  S
Zr2796     O2804   2.355       .  S
Zr2796     O2805   2.386       .  S
Zr2796     O4092   2.385   1_545  S
Zr2796     O4090   2.363   1_545  S
O2797      H2817   0.990       .  S
O2797      H2822   0.990       .  S
O2798     Zr4080   2.434       .  S
O2798      H2818   0.990       .  S
Zr2799     O2800   2.433       .  S
Zr2799     O2805   2.377       .  S
Zr2799     O2804   2.371       .  S
O2800      H2816   0.990       .  S
O2801      H2815   0.990       .  S
O2801      H2825   0.990       .  S
Zr2802     O4049   2.451   1_545  S
Zr2802     O2805   2.391       .  S
Zr2802     O4092   2.400   1_545  S
Zr2803     O4058   2.424   1_445  S
Zr2803     O2804   2.371   1_455  S
Zr2803     O4090   2.365   1_445  S
O2804      H2812   0.966       .  S
O2806     Zr4080   2.360       .  S
O2806     Zr4087   2.368       .  S
O2807      H2811   0.966       .  S
O2808     Zr4080   2.386       .  S
O2808     Zr4086   2.394       .  S
O2808      H2813   0.966       .  S
O2826     Zr2838   2.425       .  S
O2826      C2828   1.284       .  A
O2827      C2828   1.295       .  A
C2828      C3780   1.489       .  S
O2829     Zr2841   2.462       .  S
O2829      C2831   1.291       .  A
O2830     Zr4149   2.412       .  S
O2830      C2831   1.285       .  A
C2831      C3045   1.494       .  S
O2832     Zr2841   2.459       .  S
O2832      C2834   1.292       .  A
O2833     Zr4148   2.437       .  S
O2833      C2834   1.289       .  A
C2834      C2961   1.506       .  S
O2835     Zr2838   2.478       .  S
O2835      C2837   1.294       .  A
O2836      C2837   1.280       .  A
C2837      C3080   1.509       .  S
Zr2838     O4123   2.435       .  S
Zr2838     O2840   2.436   1_565  S
Zr2838     O4128   2.384       .  S
Zr2838     O4129   2.365       .  S
Zr2838     O2868   2.364   1_565  S
Zr2838     O2870   2.393   1_565  S
O2839     Zr4122   2.434       .  S
O2839      H2882   0.990       .  S
O2840      H2881   0.990       .  S
O2840      H2885   0.990       .  S
Zr2841     O2843   2.427       .  S
Zr2841     O2869   2.377       .  S
Zr2841     O2871   2.379       .  S
O2842      H2883   0.990       .  S
O2842      H2886   0.990       .  S
O2843      H2876   0.990       .  S
O2844     Zr4122   2.390       .  S
O2845     Zr4122   2.361       .  S
O2845      H2872   0.966       .  S
O2846     Zr2858   2.446       .  S
O2846      C2848   1.288       .  A
O2847     Zr2865   2.426   1_655  S
O2847      C2848   1.288       .  A
C2848      C3024   1.482       .  S
O2849     Zr2861   2.444       .  S
O2849      C2851   1.290       .  A
O2850     Zr2864   2.450   1_655  S
O2850      C2851   1.291       .  A
C2851      C3745   1.502       .  S
O2852     Zr2861   2.463       .  S
O2852      C2854   1.292       .  A
O2853     Zr2865   2.398   1_665  S
O2853      C2854   1.282       .  A
C2854      C3108   1.496       .  S
O2855     Zr2858   2.446       .  S
O2855      C2857   1.289       .  A
O2856     Zr2864   2.426   1_645  S
O2856      C2857   1.287       .  A
C2857      C2989   1.489       .  S
Zr2858     O2859   2.435       .  S
Zr2858     O2866   2.382       .  S
Zr2858     O2867   2.369       .  S
O2859      H2879   0.990       .  S
O2859      H2884   0.990       .  S
O2860      H2880   0.990       .  S
Zr2861     O2862   2.432   1_565  S
Zr2861     O4147   2.432       .  S
Zr2861     O2867   2.377   1_565  S
Zr2861     O2866   2.366   1_565  S
Zr2861     O4155   2.363       .  S
Zr2861     O4153   2.372       .  S
O2862      H2878   0.990       .  S
O2863     Zr4145   2.431       .  S
O2863      H2877   0.990       .  S
O2863      H2887   0.989       .  S
Zr2864     O4117   2.429       .  S
Zr2864     O2867   2.383   1_465  S
Zr2864     O4153   2.387   1_455  S
Zr2865     O4114   2.433   1_545  S
Zr2865     O2866   2.379   1_455  S
Zr2865     O4155   2.365   1_445  S
O2866      H2874   0.966       .  S
O2869     Zr4145   2.382       .  S
O2869     Zr4148   2.395       .  S
O2869      H2873   0.966       .  S
O2870      H2875   0.966       .  S
O2871     Zr4145   2.367       .  S
O2871     Zr4149   2.371       .  S
N2888      H2920   1.038       .  S
N2888      C2893   1.354       .  A
N2888      C2892   1.353       .  A
N2889      C2896   1.351       .  A
N2889      C2897   1.351       .  A
N2890      H2921   1.039       .  S
N2890      C2895   1.356       .  A
N2890      C2894   1.357       .  A
N2891      C2898   1.350       .  A
N2891      C2899   1.349       .  A
C2892      C2900   1.387       .  A
C2892      C2908   1.413       .  A
C2893      C2909   1.415       .  A
C2893      C2901   1.388       .  A
C2894      C2902   1.388       .  A
C2894      C2911   1.421       .  A
C2895      C2910   1.416       .  A
C2895      C2903   1.386       .  A
C2896      C2908   1.414       .  A
C2896      C2904   1.385       .  A
C2897      C2911   1.419       .  A
C2897      C2905   1.387       .  A
C2898      C2906   1.386       .  A
C2898      C2909   1.414       .  A
C2899      C2907   1.386       .  A
C2899      C2910   1.412       .  A
C2900      C2901   1.368       .  A
C2900      H2912   1.083       .  S
C2901      H2913   1.083       .  S
C2902      C2903   1.367       .  A
C2902      H2914   1.082       .  S
C2903      H2915   1.082       .  S
C2904      C2905   1.376       .  A
C2904      H2916   1.082       .  S
C2905      H2917   1.082       .  S
C2906      C2907   1.375       .  A
C2906      H2918   1.082       .  S
C2907      H2919   1.082       .  S
C2908      C3192   1.495       .  S
C2909      C3220   1.496       .  S
C2910      C3052   1.498       .  S
C2911      C3017   1.506       .  S
N2922      H2954   1.035       .  S
N2922      C2927   1.351       .  A
N2922      C2926   1.350       .  A
N2923      C2930   1.350       .  A
N2923      C2931   1.350       .  A
N2924      H2955   1.037       .  S
N2924      C2929   1.352       .  A
N2924      C2928   1.352       .  A
N2925      C2932   1.349       .  A
N2925      C2933   1.349       .  A
C2926      C2934   1.389       .  A
C2926      C2942   1.413       .  A
C2927      C2943   1.412       .  A
C2927      C2935   1.387       .  A
C2928      C2936   1.388       .  A
C2928      C2945   1.415       .  A
C2929      C2944   1.413       .  A
C2929      C2937   1.386       .  A
C2930      C2942   1.413       .  A
C2930      C2938   1.386       .  A
C2931      C2945   1.412       .  A
C2931      C2939   1.385       .  A
C2932      C2940   1.385       .  A
C2932      C2943   1.409       .  A
C2933      C2941   1.386       .  A
C2933      C2944   1.410       .  A
C2934      C2935   1.368       .  A
C2934      H2946   1.082       .  S
C2935      H2947   1.082       .  S
C2936      C2937   1.372       .  A
C2936      H2948   1.081       .  S
C2937      H2949   1.083       .  S
C2938      C2939   1.375       .  A
C2938      H2950   1.082       .  S
C2939      H2951   1.082       .  S
C2940      C2941   1.376       .  A
C2940      H2952   1.082       .  S
C2941      H2953   1.082       .  S
C2942      C3136   1.487       .  S
C2943      C3157   1.486       .  S
C2944      C3101   1.490       .  S
C2945      C3073   1.493       .  S
C2956      C2968   1.624       .  S
C2956      C2996   1.609       .  S
C2956      C3276   1.616       .  S
C2957      C2962   1.417       .  A
C2957      C2975   1.450       .  S
C2958      C2959   1.410       .  A
C2958      C2963   1.507       .  S
C2959      C2960   1.412       .  A
C2959      C2964   1.451       .  S
C2960      C2961   1.419       .  A
C2960      C2976   1.450       .  S
C2962      C2965   1.449       .  S
C2963      C2970   1.395       .  A
C2964      N2981   1.157       .  T
C2965      N2983   1.158       .  T
C2966      C2967   1.421       .  A
C2966      C2971   1.454       .  S
C2967      C2973   1.450       .  S
C2968      C2969   1.456       .  A
C2969      C2970   1.418       .  A
C2969      C2972   1.443       .  S
C2970      C2974   1.458       .  S
C2971      N2978   1.157       .  T
C2972      N2979   1.155       .  T
C2973      N2977   1.157       .  T
C2974      N2980   1.157       .  T
C2975      N2984   1.157       .  T
C2976      N2982   1.157       .  T
C2985      C2986   1.413       .  A
C2985      C2990   1.410       .  A
C2985      C3003   1.451       .  S
C2986      C2991   1.508       .  S
C2987      C2988   1.413       .  A
C2987      C2992   1.450       .  S
C2988      C3004   1.447       .  S
C2989      C2990   1.413       .  A
C2990      C2993   1.451       .  S
C2991      C2998   1.399       .  A
C2992      N3009   1.157       .  T
C2993      N3011   1.157       .  T
C2994      C2995   1.417       .  A
C2994      C2999   1.455       .  S
C2995      C3001   1.447       .  S
C2996      C2997   1.451       .  A
C2997      C2998   1.416       .  A
C2997      C3000   1.450       .  S
C2998      C3002   1.455       .  S
C2999      N3006   1.157       .  T
C3000      N3007   1.157   1_655  T
C3001      N3005   1.157       .  T
C3002      N3008   1.157       .  T
C3003      N3012   1.157       .  T
C3004      N3010   1.156       .  T
C3013      C3014   1.415       .  A
C3013      C3018   1.412       .  A
C3014      C3015   1.414       .  A
C3015      C3016   1.412       .  A
C3015      C3020   1.451       .  S
C3016      C3017   1.417       .  A
C3016      C3032   1.452       .  S
C3017      C3018   1.414       .  A
C3018      C3021   1.450       .  S
C3019      C3022   1.421       .  A
C3020      N3037   1.157       .  T
C3021      N3039   1.157       .  T
C3022      C3023   1.416       .  A
C3022      C3027   1.450       .  S
C3023      C3024   1.409       .  A
C3023      C3029   1.450       .  S
C3025      C3026   1.410       .  A
C3025      C3028   1.449       .  S
C3026      C3030   1.451       .  S
C3027      N3034   1.157       .  T
C3028      N3035   1.157       .  T
C3029      N3033   1.157       .  T
C3030      N3036   1.157       .  T
C3031      N3040   1.157       .  T
C3032      N3038   1.157       .  T
C3041      C3042   1.408       .  A
C3041      C3046   1.407       .  A
C3041      C3059   1.452       .  S
C3042      C3047   1.500       .  S
C3043      C3044   1.413       .  A
C3043      C3048   1.451       .  S
C3044      C3045   1.417       .  A
C3044      C3060   1.449       .  S
C3046      C3049   1.446       .  S
C3047      C3054   1.413       .  A
C3048      N3065   1.157       .  T
C3049      N3067   1.155       .  T
C3050      C3051   1.412       .  A
C3050      C3055   1.450       .  S
C3051      C3057   1.449       .  S
C3052      C3053   1.413       .  A
C3053      C3054   1.408       .  A
C3053      C3056   1.452       .  S
C3054      C3058   1.451       .  S
C3055      N3062   1.157       .  T
C3056      N3063   1.157       .  T
C3057      N3061   1.157       .  T
C3058      N3064   1.157       .  T
C3059      N3068   1.157       .  T
C3060      N3066   1.157       .  T
C3069      C4354   1.411   1_545  A
C3069      C3074   1.407       .  A
C3069      C3087   1.450       .  S
C3070      C4353   1.411       .  A
C3070      C3071   1.411       .  A
C3070      C3075   1.494       .  S
C3071      C3072   1.408       .  A
C3071      C3076   1.451       .  S
C3072      C3073   1.412       .  A
C3072      C3088   1.450       .  S
C3073      C4358   1.412       .  A
C3074      C4357   1.412   1_545  A
C3074      C3077   1.451       .  S
C3075      C4362   1.408       .  A
C3075      C3082   1.402       .  A
C3076      N3093   1.157       .  T
C3077      N3095   1.157       .  T
C3078      C4359   1.409       .  A
C3078      C3079   1.415       .  A
C3078      C3083   1.451       .  S
C3079      C3080   1.422       .  A
C3079      C3085   1.450       .  S
C3080      C4365   1.432   1_565  A
C3081      C4364   1.435       .  A
C3081      C3082   1.408       .  A
C3081      C3084   1.454       .  S
C3082      C3086   1.454       .  S
C3083      N3090   1.157       .  T
C3084      N3091   1.158       .  T
C3085      N3089   1.157       .  T
C3086      N3092   1.157       .  T
C3087      N3096   1.157       .  T
C3088      N3094   1.157       .  T
C3097      C3098   1.413   1_545  A
C3097      C3102   1.406       .  A
C3097      C3115   1.452       .  S
C3098      C4383   1.414       .  A
C3098      C3103   1.494       .  S
C3099      C4382   1.410       .  A
C3099      C3100   1.406       .  A
C3099      C3104   1.451       .  S
C3100      C3101   1.412       .  A
C3100      C3116   1.452       .  S
C3101      C4386   1.411       .  A
C3102      C4385   1.410   1_545  A
C3102      C3105   1.451       .  S
C3103      C4390   1.406       .  A
C3103      C3110   1.411       .  A
C3104      N3121   1.157       .  T
C3105      N3123   1.157       .  T
C3106      C4387   1.406       .  A
C3106      C3107   1.407       .  A
C3106      C3111   1.453       .  S
C3107      C4392   1.421       .  A
C3107      C3113   1.450       .  S
C3108      C4391   1.423       .  A
C3108      C3109   1.419       .  A
C3109      C3110   1.412       .  A
C3109      C3112   1.450   1_565  S
C3110      C3114   1.452       .  S
C3111      N3118   1.157       .  T
C3112      N3119   1.157       .  T
C3113      N3117   1.156       .  T
C3114      N3120   1.157   1_565  T
C3115      N3124   1.157       .  T
C3116      N3122   1.157       .  T
C3125      C4410   1.404   1_545  A
C3125      C3130   1.410       .  A
C3125      C3143   1.453       .  S
C3126      C4409   1.402       .  A
C3126      C3127   1.408       .  A
C3126      C3131   1.490       .  S
C3127      C3128   1.413       .  A
C3127      C3132   1.451       .  S
C3128      C4413   1.421       .  A
C3128      C3144   1.449       .  S
C3129      C4412   1.424       .  A
C3129      C3130   1.428   1_565  A
C3130      C3133   1.450       .  S
C3131      C4418   1.412       .  A
C3131      C3138   1.410       .  A
C3132      N3149   1.157       .  T
C3133      N3151   1.156       .  T
C3134      C4415   1.412   1_545  A
C3134      C3135   1.410       .  A
C3134      C3139   1.450       .  S
C3135      C4420   1.413   1_545  A
C3135      C3141   1.450       .  S
C3136      C4419   1.411       .  A
C3136      C3137   1.411       .  A
C3137      C3138   1.407       .  A
C3137      C3140   1.451       .  S
C3138      C3142   1.450       .  S
C3139      N3146   1.157       .  T
C3140      N3147   1.157       .  T
C3141      N3145   1.157       .  T
C3142      N3148   1.157       .  T
C3143      N3152   1.157       .  T
C3144      N3150   1.157       .  T
C3153      C3154   1.410   1_545  A
C3153      C3158   1.406       .  A
C3153      C3171   1.451       .  S
C3154      C4439   1.412       .  A
C3154      C3159   1.488       .  S
C3155      C4438   1.410       .  A
C3155      C3156   1.406       .  A
C3155      C3160   1.450       .  S
C3156      C3157   1.411       .  A
C3156      C3172   1.451       .  S
C3157      C4442   1.410       .  A
C3158      C4441   1.411   1_545  A
C3158      C3161   1.451       .  S
C3159      C3162   1.407       .  A
C3159      C4450   1.400       .  A
C3160      N3177   1.157       .  T
C3161      N3179   1.157       .  T
C3162      C3163   1.413       .  A
C3162      C3167   1.451       .  S
C3163      C3164   1.423       .  A
C3163      C3169   1.450   1_565  S
C3164      C4449   1.438       .  A
C3165      C4448   1.431       .  A
C3165      C3166   1.405       .  A
C3165      C3168   1.453       .  S
C3166      C4443   1.402       .  A
C3166      C3170   1.454       .  S
C3167      N3174   1.157   1_565  T
C3168      N3175   1.157       .  T
C3169      N3173   1.157       .  T
C3170      N3176   1.157       .  T
C3171      N3180   1.157       .  T
C3172      N3178   1.157       .  T
C3181      C3186   1.410       .  A
C3181      C3199   1.451       .  S
C3182      C3183   1.410   1_455  A
C3183      C3184   1.404       .  A
C3183      C3188   1.453       .  S
C3184      C3185   1.412       .  A
C3184      C3200   1.448       .  S
C3186      C3189   1.451       .  S
C3187      C3190   1.412       .  A
C3188      N3205   1.157       .  T
C3189      N3207   1.157       .  T
C3190      C3191   1.410       .  A
C3190      C3195   1.451       .  S
C3191      C3192   1.413       .  A
C3191      C3197   1.449       .  S
C3193      C3194   1.405       .  A
C3193      C3196   1.452       .  S
C3194      C3198   1.453       .  S
C3195      N3202   1.157       .  T
C3196      N3203   1.157       .  T
C3197      N3201   1.157       .  T
C3198      N3204   1.157       .  T
C3199      N3208   1.157       .  T
C3200      N3206   1.156       .  T
C3209      C3214   1.409       .  A
C3209      C3227   1.450       .  S
C3210      C3211   1.414       .  A
C3210      C3215   1.495       .  S
C3211      C3212   1.410       .  A
C3211      C3216   1.450       .  S
C3212      C3228   1.451       .  S
C3213      C3214   1.408       .  A
C3214      C3217   1.450       .  S
C3215      C3218   1.413       .  A
C3216      N3233   1.157       .  T
C3217      N3235   1.157       .  T
C3218      C3219   1.410       .  A
C3218      C3223   1.451       .  S
C3219      C3220   1.412       .  A
C3219      C3225   1.450       .  S
C3221      C3222   1.411       .  A
C3221      C3224   1.451       .  S
C3222      C3226   1.452       .  S
C3223      N3230   1.157       .  T
C3224      N3231   1.157       .  T
C3225      N3229   1.157       .  T
C3226      N3232   1.157       .  T
C3227      N3236   1.157       .  T
C3228      N3234   1.157       .  T
C3237      C3238   1.412       .  A
C3237      C3242   1.410       .  A
C3237      C3255   1.451       .  S
C3238      C3239   1.413       .  A
C3238      C3243   1.506       .  S
C3239      C3240   1.415       .  A
C3239      C3244   1.450       .  S
C3240      C3241   1.415       .  A
C3240      C3256   1.449       .  S
C3241      C3242   1.415       .  A
C3242      C3245   1.452       .  S
C3243      C3246   1.399       .  A
C3243      C3250   1.402       .  A
C3244      N3261   1.157       .  T
C3245      N3263   1.157       .  T
C3246      C3247   1.419       .  A
C3246      C3251   1.456       .  S
C3247      C3248   1.454       .  A
C3247      C3253   1.449       .  S
C3248      C3249   1.448       .  A
C3249      C3250   1.419       .  A
C3249      C3252   1.451       .  S
C3250      C3254   1.454       .  S
C3251      N3258   1.157       .  T
C3253      N3257   1.157       .  T
C3254      N3260   1.157       .  T
C3255      N3264   1.157       .  T
C3256      N3262   1.157       .  T
C3265      C3266   1.418       .  A
C3265      C3270   1.409       .  A
C3265      C3283   1.448       .  S
C3266      C3267   1.416       .  A
C3266      C3271   1.507       .  S
C3267      C3268   1.413       .  A
C3267      C3272   1.450       .  S
C3268      C3269   1.409       .  A
C3268      C3284   1.451       .  S
C3269      C3270   1.408       .  A
C3270      C3273   1.455       .  S
C3271      C3274   1.401       .  A
C3271      C3278   1.401       .  A
C3272      N3289   1.157       .  T
C3273      N3291   1.158       .  T
C3274      C3275   1.419       .  A
C3274      C3279   1.454       .  S
C3275      C3276   1.452       .  A
C3275      C3281   1.451       .  S
C3276      C3277   1.451       .  A
C3277      C3278   1.421       .  A
C3277      C3280   1.447       .  S
C3278      C3282   1.456       .  S
C3279      N3286   1.157       .  T
C3281      N3285   1.157       .  T
C3282      N3288   1.157       .  T
C3283      N3292   1.157       .  T
C3284      N3290   1.157       .  T
C3293      C3294   1.414       .  A
C3293      C3298   1.410       .  A
C3293      C3311   1.451       .  S
C3294      C3295   1.415       .  A
C3294      C3299   1.499       .  S
C3295      C3296   1.409       .  A
C3295      C3300   1.451       .  S
C3296      C3297   1.410       .  A
C3296      C3312   1.451       .  S
C3297      C3298   1.412       .  A
C3298      C3301   1.450       .  S
C3299      C3302   1.409       .  A
C3299      C3306   1.414       .  A
C3300      N3317   1.157       .  T
C3301      N3319   1.157       .  T
C3302      C3303   1.407       .  A
C3302      C3307   1.453       .  S
C3303      C3304   1.418       .  A
C3303      C3309   1.448       .  S
C3304      C3305   1.416       .  A
C3305      C3306   1.412       .  A
C3305      C3308   1.450       .  S
C3306      C3310   1.451       .  S
C3307      N3314   1.157       .  T
C3308      N3315   1.157       .  T
C3309      N3313   1.155       .  T
C3310      N3316   1.157       .  T
C3311      N3320   1.157       .  T
C3312      N3318   1.157       .  T
C3321      C3322   1.409       .  A
C3321      C3326   1.410       .  A
C3321      C3339   1.451       .  S
C3322      C3323   1.415       .  A
C3322      C3327   1.501       .  S
C3323      C3324   1.414       .  A
C3323      C3328   1.450       .  S
C3324      C3325   1.412       .  A
C3324      C3340   1.450       .  S
C3325      C3326   1.415       .  A
C3326      C3329   1.450       .  S
C3327      C3330   1.412       .  A
C3327      C3334   1.412       .  A
C3328      N3345   1.157       .  T
C3329      N3347   1.157       .  T
C3330      C3331   1.411       .  A
C3330      C3335   1.449       .  S
C3331      C3332   1.413       .  A
C3331      C3337   1.450       .  S
C3332      C3333   1.415       .  A
C3333      C3334   1.412       .  A
C3333      C3336   1.451       .  S
C3334      C3338   1.450       .  S
C3335      N3342   1.157       .  T
C3336      N3343   1.157       .  T
C3337      N3341   1.157       .  T
C3338      N3344   1.157       .  T
C3339      N3348   1.157       .  T
C3340      N3346   1.157       .  T
C3349      C3350   1.414       .  A
C3349      C3354   1.409       .  A
C3349      C3367   1.450       .  S
C3350      C3351   1.416       .  A
C3350      C3355   1.504       .  S
C3351      C3352   1.414       .  A
C3351      C3356   1.449       .  S
C3352      C3353   1.411       .  A
C3352      C3368   1.449       .  S
C3353      C3354   1.412       .  A
C3354      C3357   1.451       .  S
C3355      C3358   1.414       .  A
C3355      C3362   1.411       .  A
C3356      N3373   1.157       .  T
C3357      N3375   1.157       .  T
C3358      C3359   1.416       .  A
C3358      C3363   1.450       .  S
C3359      C3360   1.416       .  A
C3359      C3365   1.449       .  S
C3360      C3361   1.413       .  A
C3361      C3362   1.409       .  A
C3361      C3364   1.448       .  S
C3362      C3366   1.451       .  S
C3363      N3370   1.157       .  T
C3364      N3371   1.156       .  T
C3365      N3369   1.157       .  T
C3366      N3372   1.157       .  T
C3367      N3376   1.157       .  T
C3368      N3374   1.157       .  T
C3377      C3378   1.418       .  A
C3377      C3382   1.412       .  A
C3377      C3395   1.451       .  S
C3378      C3379   1.413       .  A
C3378      C3383   1.501       .  S
C3379      C3380   1.407       .  A
C3379      C3384   1.451       .  S
C3380      C3381   1.410       .  A
C3380      C3396   1.450       .  S
C3381      C3382   1.409       .  A
C3382      C3385   1.451       .  S
C3383      C3386   1.415       .  A
C3383      C3390   1.415       .  A
C3384      N3401   1.157       .  T
C3385      N3403   1.157       .  T
C3386      C3387   1.411       .  A
C3386      C3391   1.450       .  S
C3387      C3388   1.411       .  A
C3387      C3393   1.450       .  S
C3388      C3389   1.410       .  A
C3389      C3390   1.407       .  A
C3389      C3392   1.451       .  S
C3390      C3394   1.451       .  S
C3391      N3398   1.157       .  T
C3392      N3399   1.157       .  T
C3393      N3397   1.157       .  T
C3394      N3400   1.157       .  T
C3395      N3404   1.157       .  T
C3396      N3402   1.157       .  T
C3405      C3406   1.417       .  A
C3405      C3410   1.413       .  A
C3405      C3423   1.452       .  S
C3406      C3411   1.513       .  S
C3407      C3408   1.420       .  A
C3407      C3412   1.449       .  S
C3408      C3424   1.449       .  S
C3409      C3410   1.413       .  A
C3410      C3413   1.451       .  S
C3411      C3414   1.404       .  A
C3412      N3429   1.157       .  T
C3413      N3431   1.157       .  T
C3414      C3415   1.416       .  A
C3414      C3419   1.456       .  S
C3415      C3416   1.448       .  A
C3415      C3421   1.447       .  S
C3417      C3418   1.422       .  A
C3417      C3420   1.450       .  S
C3418      C3422   1.453       .  S
C3419      N3426   1.157       .  T
C3420      N3427   1.157       .  T
C3421      N3425   1.157       .  T
C3422      N3428   1.157       .  T
C3423      N3432   1.157       .  T
C3424      N3430   1.157       .  T
C3433      C3438   1.411       .  A
C3433      C3451   1.452       .  S
C3434      C3435   1.415       .  A
C3434      C3439   1.516       .  S
C3435      C3436   1.417       .  A
C3435      C3440   1.449       .  S
C3436      C3437   1.413       .  A
C3436      C3452   1.448       .  S
C3438      C3441   1.452       .  S
C3439      C3442   1.401   1_655  A
C3439      C3446   1.406       .  A
C3440      N3457   1.157       .  T
C3441      N3459   1.157       .  T
C3442      C3443   1.417       .  A
C3442      C3447   1.455       .  S
C3443      C3444   1.450   1_455  A
C3443      C3449   1.448       .  S
C3444      C3445   1.448       .  A
C3445      C3446   1.422       .  A
C3446      C3450   1.453       .  S
C3447      N3454   1.157       .  T
C3448      N3455   1.157       .  T
C3449      N3453   1.158       .  T
C3450      N3456   1.157       .  T
C3451      N3460   1.157       .  T
C3452      N3458   1.157       .  T
C3461      C3462   1.415       .  A
C3461      C3466   1.411       .  A
C3461      C3479   1.452       .  S
C3462      C3463   1.416       .  A
C3462      C3467   1.512       .  S
C3463      C3464   1.418       .  A
C3463      C3468   1.450       .  S
C3464      C3465   1.414       .  A
C3464      C3480   1.449       .  S
C3465      C3466   1.414       .  A
C3466      C3469   1.451       .  S
C3467      C3470   1.407       .  A
C3467      C3474   1.402       .  A
C3468      N3485   1.157       .  T
C3469      N3487   1.157       .  T
C3470      C3471   1.423       .  A
C3470      C3475   1.453       .  S
C3471      C3472   1.448       .  A
C3471      C3477   1.449       .  S
C3472      C3473   1.443       .  A
C3473      C3474   1.411       .  A
C3473      C3476   1.449       .  S
C3474      C3478   1.454       .  S
C3475      N3482   1.157       .  T
C3476      N3483   1.157       .  T
C3478      N3484   1.157       .  T
C3479      N3488   1.157       .  T
C3480      N3486   1.157       .  T
C3489      C3490   1.403       .  A
C3489      C3494   1.412       .  A
C3489      C3507   1.453       .  S
C3490      C3491   1.408       .  A
C3490      C3495   1.514       .  S
C3491      C3492   1.423       .  A
C3491      C3496   1.453       .  S
C3492      C3493   1.449       .  A
C3492      C3508   1.450       .  S
C3493      C3494   1.444       .  A
C3494      C3497   1.447       .  S
C3495      C3498   1.417       .  A
C3495      C3502   1.417       .  A
C3496      N3513   1.157       .  T
C3497      N3515   1.157       .  T
C3498      C3499   1.416       .  A
C3498      C3503   1.449       .  S
C3499      C3500   1.411       .  A
C3499      C3505   1.449       .  S
C3500      C3501   1.413       .  A
C3501      C3502   1.414       .  A
C3501      C3504   1.452       .  S
C3502      C3506   1.452       .  S
C3503      N3510   1.157       .  T
C3504      N3511   1.157       .  T
C3505      N3509   1.157       .  T
C3506      N3512   1.157       .  T
C3507      N3516   1.157       .  T
C3508      N3514   1.157   1_655  T
C3517      C3518   1.400   1_545  A
C3517      C3522   1.419       .  A
C3517      C3535   1.456       .  S
C3518      C4803   1.402       .  A
C3518      C3523   1.511   1_565  S
C3519      C4802   1.403       .  A
C3519      C3520   1.422       .  A
C3519      C3524   1.454       .  S
C3520      C4805   1.447       .  A
C3520      C3536   1.449       .  S
C3521      C3888   1.617   1_545  S
C3521      C4804   1.450   1_545  A
C3521      C3522   1.448       .  A
C3522      C3525   1.444       .  S
C3523      C4810   1.415   1_545  A
C3523      C3530   1.411       .  A
C3524      N3541   1.157       .  T
C3525      N3543   1.156       .  T
C3526      C4807   1.413       .  A
C3526      C3527   1.418       .  A
C3526      C3531   1.449       .  S
C3527      C4812   1.422       .  A
C3527      C3533   1.450       .  S
C3528      C4811   1.416   1_545  A
C3528      C3529   1.419       .  A
C3529      C3530   1.412       .  A
C3529      C3532   1.450       .  S
C3530      C3534   1.452       .  S
C3531      N3538   1.157       .  T
C3532      N3539   1.157       .  T
C3533      N3537   1.158       .  T
C3534      N3540   1.157       .  T
C3535      N3544   1.157       .  T
C3536      N3542   1.157       .  T
C3545      C4830   1.399       .  A
C3545      C3550   1.419       .  A
C3545      C3563   1.456       .  S
C3546      C4829   1.399       .  A
C3546      C3547   1.403   1_565  A
C3546      C3551   1.509       .  S
C3547      C3548   1.424       .  A
C3547      C3552   1.453       .  S
C3548      C3549   1.450   1_545  A
C3548      C3564   1.449       .  S
C3549      C3888   1.617       .  S
C3549      C4834   1.448       .  A
C3550      C4833   1.452       .  A
C3550      C3553   1.448       .  S
C3551      C3554   1.414   1_565  A
C3551      C4842   1.409       .  A
C3552      N3569   1.157       .  T
C3553      N3571   1.157       .  T
C3554      C3555   1.418       .  A
C3554      C3559   1.448       .  S
C3555      C3556   1.419   1_545  A
C3555      C3561   1.451       .  S
C3556      C4841   1.424       .  A
C3557      C4840   1.425       .  A
C3557      C3558   1.410       .  A
C3557      C3560   1.449       .  S
C3558      C4835   1.405       .  A
C3558      C3562   1.454       .  S
C3559      N3566   1.157       .  T
C3560      N3567   1.156       .  T
C3561      N3565   1.158       .  T
C3562      N3568   1.157       .  T
C3563      N3572   1.157       .  T
C3564      N3570   1.157       .  T
C3573      C3574   1.397       .  A
C3573      C3578   1.415       .  A
C3573      C3591   1.457       .  S
C3574      C3575   1.400       .  A
C3574      C3579   1.504       .  S
C3575      C3576   1.423       .  A
C3575      C3580   1.454       .  S
C3576      C3577   1.450       .  A
C3576      C3592   1.447       .  S
C3577      C3888   1.618   1_545  S
C3577      C3578   1.451       .  A
C3578      C3581   1.446       .  S
C3579      C3582   1.411       .  A
C3579      C3586   1.412       .  A
C3580      N3597   1.157       .  T
C3581      N3599   1.156       .  T
C3582      C3583   1.411       .  A
C3582      C3587   1.453       .  S
C3583      C3584   1.419       .  A
C3583      C3589   1.450       .  S
C3584      C3585   1.416       .  A
C3585      C3586   1.414       .  A
C3585      C3588   1.449       .  S
C3586      C3590   1.448       .  S
C3587      N3594   1.157       .  T
C3588      N3595   1.157       .  T
C3589      N3593   1.157       .  T
C3590      N3596   1.157       .  T
C3591      N3600   1.157       .  T
C3592      N3598   1.157   1_545  T
C3601      C3602   1.399       .  A
C3601      C3606   1.419       .  A
C3601      C3619   1.456       .  S
C3602      C3603   1.401       .  A
C3602      C3607   1.508       .  S
C3603      C3604   1.421       .  A
C3603      C3608   1.454       .  S
C3604      C3605   1.447       .  A
C3604      C3620   1.448       .  S
C3605      C3606   1.452       .  A
C3606      C3609   1.448       .  S
C3607      C3610   1.407       .  A
C3607      C3614   1.411       .  A
C3608      N3625   1.157       .  T
C3609      N3627   1.157       .  T
C3610      C3611   1.412       .  A
C3610      C3615   1.453       .  S
C3611      C3612   1.421       .  A
C3611      C3617   1.448       .  S
C3612      C3613   1.424       .  A
C3613      C3614   1.419       .  A
C3613      C3616   1.451       .  S
C3614      C3618   1.450       .  S
C3615      N3622   1.157       .  T
C3616      N3623   1.158       .  T
C3617      N3621   1.157       .  T
C3618      N3624   1.157       .  T
C3619      N3628   1.157       .  T
C3620      N3626   1.157       .  T
C3629      C3630   1.411       .  A
C3629      C3634   1.415       .  A
C3629      C3647   1.451       .  S
C3630      C3631   1.407       .  A
C3630      C3635   1.499       .  S
C3631      C3632   1.408       .  A
C3631      C3636   1.453       .  S
C3632      C3633   1.425       .  A
C3632      C3648   1.451       .  S
C3633      C3634   1.421       .  A
C3634      C3637   1.449       .  S
C3635      C3638   1.414       .  A
C3635      C3642   1.414       .  A
C3636      N3653   1.157       .  T
C3637      N3655   1.157       .  T
C3638      C3639   1.407       .  A
C3638      C3643   1.451       .  S
C3639      C3640   1.409       .  A
C3639      C3645   1.450       .  S
C3640      C3641   1.411       .  A
C3641      C3642   1.410       .  A
C3641      C3644   1.451       .  S
C3642      C3646   1.450       .  S
C3643      N3650   1.157       .  T
C3644      N3651   1.157       .  T
C3645      N3649   1.157       .  T
C3646      N3652   1.157       .  T
C3647      N3656   1.157       .  T
C3648      N3654   1.157       .  T
C3657      C3658   1.404       .  A
C3657      C3662   1.409       .  A
C3657      C3675   1.453       .  S
C3658      C3659   1.407       .  A
C3658      C3663   1.492       .  S
C3659      C3660   1.412       .  A
C3659      C3664   1.452       .  S
C3660      C3661   1.424       .  A
C3660      C3676   1.451       .  S
C3661      C3662   1.430       .  A
C3662      C3665   1.452       .  S
C3663      C3666   1.411       .  A
C3663      C3670   1.410       .  A
C3664      N3681   1.157       .  T
C3665      N3683   1.157       .  T
C3666      C3667   1.407       .  A
C3666      C3671   1.452       .  S
C3667      C3668   1.412       .  A
C3667      C3673   1.450       .  S
C3668      C3669   1.413       .  A
C3669      C3670   1.410       .  A
C3669      C3672   1.450       .  S
C3670      C3674   1.450       .  S
C3671      N3678   1.157       .  T
C3672      N3679   1.157       .  T
C3673      N3677   1.157       .  T
C3674      N3680   1.157       .  T
C3675      N3684   1.157       .  T
C3676      N3682   1.157       .  T
C3685      C3686   1.406       .  A
C3685      C3690   1.408       .  A
C3685      C3703   1.453       .  S
C3686      C3687   1.410       .  A
C3686      C3691   1.496       .  S
C3687      C3688   1.416       .  A
C3687      C3692   1.450       .  S
C3688      C3689   1.418       .  A
C3688      C3704   1.449       .  S
C3689      C3690   1.420       .  A
C3690      C3693   1.447       .  S
C3691      C3694   1.412       .  A
C3691      C3698   1.411       .  A
C3692      N3709   1.157       .  T
C3693      N3711   1.155       .  T
C3694      C3695   1.411       .  A
C3694      C3699   1.450       .  S
C3695      C3696   1.411       .  A
C3695      C3701   1.450       .  S
C3696      C3697   1.414       .  A
C3697      C3698   1.408       .  A
C3697      C3700   1.452       .  S
C3698      C3702   1.451       .  S
C3699      N3706   1.157       .  T
C3700      N3707   1.157       .  T
C3701      N3705   1.157       .  T
C3702      N3708   1.157       .  T
C3703      N3712   1.157       .  T
C3704      N3710   1.157       .  T
C3713      C3714   1.401       .  A
C3713      C3718   1.409       .  A
C3713      C3731   1.454       .  S
C3714      C3715   1.406       .  A
C3714      C3719   1.490       .  S
C3715      C3716   1.413       .  A
C3715      C3720   1.453       .  S
C3716      C3717   1.426       .  A
C3716      C3732   1.449       .  S
C3717      C3718   1.435       .  A
C3718      C3721   1.453       .  S
C3719      C3722   1.411       .  A
C3719      C3726   1.410       .  A
C3720      N3737   1.157       .  T
C3721      N3739   1.158       .  T
C3722      C3723   1.406       .  A
C3722      C3727   1.450       .  S
C3723      C3724   1.409       .  A
C3723      C3729   1.451       .  S
C3724      C3725   1.411       .  A
C3725      C3726   1.406       .  A
C3725      C3728   1.451       .  S
C3726      C3730   1.450       .  S
C3727      N3734   1.157       .  T
C3728      N3735   1.157       .  T
C3729      N3733   1.157       .  T
C3730      N3736   1.157       .  T
C3731      N3740   1.157       .  T
C3732      N3738   1.157       .  T
C3741      C5026   1.412       .  A
C3741      C3746   1.415       .  A
C3741      C3759   1.451       .  S
C3742      C5025   1.412   1_565  A
C3742      C3743   1.411       .  A
C3742      C3747   1.508       .  S
C3743      C3744   1.411       .  A
C3743      C3748   1.451       .  S
C3744      C3745   1.417       .  A
C3744      C3760   1.450       .  S
C3745      C5030   1.419   1_565  A
C3746      C5029   1.418       .  A
C3746      C3749   1.448       .  S
C3747      C5034   1.399       .  A
C3747      C3754   1.402   1_565  A
C3748      N3765   1.157       .  T
C3749      N3767   1.156       .  T
C3750      C5031   1.398       .  A
C3750      C3751   1.414       .  A
C3750      C3755   1.457       .  S
C3751      C5036   1.453       .  A
C3751      C3757   1.451       .  S
C3752      C3853   1.614       .  S
C3752      C5035   1.452       .  A
C3752      C3753   1.448   1_565  A
C3753      C3754   1.421       .  A
C3753      C3756   1.449       .  S
C3754      C3758   1.454       .  S
C3755      N3762   1.157       .  T
C3756      N3763   1.157       .  T
C3757      N3761   1.157       .  T
C3758      N3764   1.157       .  T
C3759      N3768   1.157       .  T
C3760      N3766   1.157       .  T
C3769      C5054   1.398       .  A
C3769      C3774   1.417       .  A
C3769      C3787   1.457       .  S
C3770      C5053   1.400       .  A
C3770      C3771   1.401       .  A
C3770      C3775   1.509       .  S
C3771      C3772   1.421       .  A
C3771      C3776   1.454       .  S
C3772      C3773   1.450       .  A
C3772      C3788   1.450       .  S
C3773      C3853   1.615       .  S
C3773      C5058   1.451       .  A
C3774      C5057   1.450       .  A
C3774      C3777   1.446       .  S
C3775      C3778   1.415   1_565  A
C3775      C5066   1.413       .  A
C3776      N3793   1.157       .  T
C3777      N3795   1.157       .  T
C3778      C3779   1.413       .  A
C3778      C3783   1.449       .  S
C3779      C3780   1.413   1_545  A
C3779      C3785   1.453       .  S
C3780      C5065   1.414       .  A
C3781      C5064   1.412       .  A
C3781      C3782   1.412       .  A
C3781      C3784   1.451       .  S
C3782      C5059   1.413       .  A
C3782      C3786   1.451       .  S
C3783      N3790   1.157       .  T
C3784      N3791   1.157       .  T
C3785      N3789   1.157       .  T
C3786      N3792   1.157       .  T
C3787      N3796   1.157       .  T
C3788      N3794   1.157       .  T
C3797      C3798   1.407       .  A
C3797      C3802   1.410       .  A
C3797      C3815   1.451       .  S
C3798      C3799   1.412       .  A
C3798      C3803   1.505       .  S
C3799      C3800   1.418       .  A
C3799      C3804   1.452       .  S
C3800      C3801   1.424       .  A
C3800      C3816   1.451       .  S
C3801      C3802   1.423       .  A
C3802      C3805   1.451       .  S
C3803      C3806   1.401       .  A
C3803      C3810   1.397       .  A
C3804      N3821   1.157       .  T
C3805      N3823   1.157       .  T
C3806      C3807   1.421       .  A
C3806      C3811   1.454       .  S
C3807      C3808   1.448       .  A
C3807      C3813   1.448       .  S
C3808      C3853   1.619   1_545  S
C3808      C3809   1.453       .  A
C3809      C3810   1.416       .  A
C3809      C3812   1.445       .  S
C3810      C3814   1.457       .  S
C3811      N3818   1.157       .  T
C3812      N3819   1.156       .  T
C3813      N3817   1.157       .  T
C3814      N3820   1.157       .  T
C3815      N3824   1.157       .  T
C3816      N3822   1.158       .  T
C3825      C3826   1.403       .  A
C3825      C3830   1.418       .  A
C3825      C3843   1.455       .  S
C3826      C3827   1.399       .  A
C3826      C3831   1.505       .  S
C3827      C3828   1.415       .  A
C3827      C3832   1.454       .  S
C3828      C3829   1.450       .  A
C3828      C3844   1.449       .  S
C3829      C3830   1.447       .  A
C3830      C3833   1.444       .  S
C3831      C3834   1.416       .  A
C3831      C3838   1.412       .  A
C3832      N3849   1.157       .  T
C3833      N3851   1.157       .  T
C3834      C3835   1.414       .  A
C3834      C3839   1.450       .  S
C3835      C3836   1.410       .  A
C3835      C3841   1.448       .  S
C3836      C3837   1.414       .  A
C3837      C3838   1.410       .  A
C3837      C3840   1.452       .  S
C3838      C3842   1.451       .  S
C3839      N3846   1.157       .  T
C3840      N3847   1.157       .  T
C3841      N3845   1.157       .  T
C3842      N3848   1.157       .  T
C3843      N3852   1.157       .  T
C3844      N3850   1.157       .  T
C3853      C5113   1.616       .  S
N3854      H3886   1.035       .  S
N3854      C3858   1.350       .  A
N3855      C3862   1.349   1_554  A
N3855      C3863   1.352       .  A
N3856      H3887   1.035       .  S
N3856      C3860   1.356       .  A
N3857      C3864   1.350   1_554  A
N3857      C3865   1.352       .  A
C3858      C3866   1.390       .  A
C3858      C3874   1.416       .  A
C3859      C3875   1.417       .  A
C3859      C3867   1.388       .  A
C3860      C3868   1.385       .  A
C3860      C3877   1.416       .  A
C3861      C3876   1.412       .  A
C3861      C3869   1.386       .  A
C3862      C3874   1.414       .  A
C3862      C3870   1.387       .  A
C3863      C3877   1.413       .  A
C3863      C3871   1.385       .  A
C3864      C3872   1.387       .  A
C3864      C3875   1.415       .  A
C3865      C3873   1.385       .  A
C3865      C3876   1.413       .  A
C3866      H3878   1.082       .  S
C3867      H3879   1.082       .  S
C3868      H3880   1.082       .  S
C3869      H3881   1.082       .  S
C3870      C3871   1.375   1_556  A
C3870      H3882   1.082       .  S
C3871      H3883   1.082       .  S
C3872      C3873   1.378   1_556  A
C3872      H3884   1.082       .  S
C3873      H3885   1.082       .  S
C3874      C5008   1.483       .  S
C3875      C4980   1.495       .  S
C3876      C4924   1.496       .  S
C3877      C4952   1.500       .  S
C3888      C4889   1.618       .  S
C3889      C4756   1.618       .  S
N3890      H3922   1.039       .  S
N3890      C3895   1.352       .  A
N3891      C3898   1.350   1_554  A
N3891      C3899   1.348       .  A
N3892      H3923   1.037       .  S
N3892      C3897   1.352       .  A
N3893      C3900   1.347   1_554  A
N3893      C3901   1.346       .  A
C3894      C3902   1.385       .  A
C3894      C3910   1.414       .  A
C3895      C3911   1.415       .  A
C3895      C3903   1.388       .  A
C3896      C3904   1.389       .  A
C3896      C3913   1.413       .  A
C3897      C3912   1.413       .  A
C3897      C3905   1.386       .  A
C3898      C3910   1.410       .  A
C3898      C3906   1.386       .  A
C3899      C3913   1.408       .  A
C3899      C3907   1.386       .  A
C3900      C3908   1.387       .  A
C3900      C3911   1.408       .  A
C3901      C3909   1.386       .  A
C3901      C3912   1.405       .  A
C3902      H3914   1.083       .  S
C3903      H3915   1.083       .  S
C3904      H3916   1.082       .  S
C3905      H3917   1.083       .  S
C3906      C3907   1.375   1_556  A
C3906      H3918   1.082       .  S
C3907      H3919   1.082       .  S
C3908      C3909   1.374   1_556  A
C3908      H3920   1.082       .  S
C3909      H3921   1.082       .  S
C3910      C4637   1.499       .  S
C3911      C4672   1.491       .  S
C3912      C4616   1.484       .  S
C3913      C4581   1.483       .  S
O3924     Zr3936   2.469       .  S
O3924      C3926   1.293       .  A
O3925     Zr3962   2.374       .  S
O3925      C3926   1.275       .  A
C3926      C5001   1.504       .  S
O3927     Zr3939   2.460       .  S
O3927      C3929   1.293       .  A
O3928     Zr3963   2.467       .  S
O3928      C3929   1.295       .  A
C3929      C4896   1.515       .  S
O3930     Zr3939   2.469       .  S
O3930      C3932   1.292       .  A
O3931     Zr3962   2.398       .  S
O3931      C3932   1.281       .  A
C3932      C4665   1.479       .  S
O3933     Zr3936   2.442       .  S
O3933      C3935   1.288       .  A
O3934     Zr3963   2.463       .  S
O3934      C3935   1.294       .  A
C3935      C4784   1.499       .  S
Zr3936     O3937   2.433       .  S
Zr3936     O3938   2.434       .  S
Zr3936     O3942   2.366       .  S
Zr3936     O3943   2.379       .  S
Zr3936     O3966   2.379       .  S
Zr3936     O3968   2.363       .  S
O3937      H3980   0.990       .  S
O3938      H3979   0.990       .  S
O3938      H3983   0.990       .  S
Zr3939     O3940   2.429       .  S
Zr3939     O3941   2.435       .  S
Zr3939     O3943   2.384       .  S
Zr3939     O3942   2.370       .  S
Zr3939     O3967   2.374       .  S
Zr3939     O3969   2.376       .  S
O3940      H3981   0.989       .  S
O3940      H3984   0.990       .  S
O3941      H3974   0.990       .  S
O3942     Zr3962   2.375       .  S
O3943     Zr3963   2.403       .  S
O3943      H3970   0.966       .  S
O3944     Zr3956   2.411       .  S
O3944      C3946   1.281       .  A
O3945     Zr3963   2.481       .  S
O3945      C3946   1.298       .  A
C3946      C4868   1.520       .  S
O3947     Zr3959   2.474       .  S
O3947      C3949   1.294       .  A
O3948     Zr3962   2.400       .  S
O3948      C3949   1.281       .  A
C3949      C4973   1.509       .  S
O3950     Zr3959   2.426       .  S
O3950      C3952   1.285       .  A
O3951     Zr3963   2.458       .  S
O3951      C3952   1.294       .  A
C3952      C4749   1.487       .  S
O3953     Zr3956   2.458       .  S
O3953      C3955   1.291       .  A
O3954     Zr3962   2.416       .  S
O3954      C3955   1.285       .  A
C3955      C4644   1.492       .  S
Zr3956     O3957   2.433       .  S
Zr3956     O3958   2.433       .  S
Zr3956     O3964   2.372       .  S
Zr3956     O3965   2.353       .  S
Zr3956     O3968   2.365       .  S
Zr3956     O3966   2.386       .  S
O3957      H3977   0.990       .  S
O3957      H3982   0.988       .  S
O3958      H3978   0.990       .  S
Zr3959     O3960   2.434       .  S
Zr3959     O3961   2.434       .  S
Zr3959     O3965   2.360       .  S
Zr3959     O3964   2.378       .  S
Zr3959     O3969   2.388       .  S
Zr3959     O3967   2.363       .  S
O3960      H3976   0.990       .  S
O3961      H3975   0.990       .  S
O3961      H3985   0.990       .  S
Zr3962     O3965   2.356       .  S
Zr3962     O3967   2.377       .  S
Zr3962     O3968   2.372       .  S
Zr3963     O3964   2.394       .  S
Zr3963     O3966   2.393       .  S
Zr3963     O3969   2.400       .  S
O3964      H3972   0.966       .  S
O3967      H3971   0.966       .  S
O3968      H3973   0.966       .  S
O3986     Zr3998   2.440       .  S
O3986      C3988   1.287       .  A
O3987     Zr4024   2.450       .  S
O3987      C3988   1.291       .  A
C3988      C4553   1.488       .  S
O3989     Zr4001   2.452       .  S
O3989      C3991   1.290       .  A
O3990     Zr4025   2.402       .  S
O3990      C3991   1.284       .  A
C3991      C4609   1.485       .  S
O3992     Zr4001   2.439       .  S
O3992      C3994   1.288       .  A
O3993     Zr4024   2.439       .  S
O3993      C3994   1.289       .  A
C3994      C5120   1.484       .  S
O3995     Zr3998   2.474       .  S
O3995      C3997   1.294       .  A
O3996     Zr4025   2.417       .  S
O3996      C3997   1.286       .  A
C3997      C4945   1.512       .  S
Zr3998     O3999   2.434       .  S
Zr3998     O4000   2.437       .  S
Zr3998     O4004   2.384       .  S
Zr3998     O4005   2.360       .  S
Zr3998     O4028   2.370       .  S
Zr3998     O4030   2.379       .  S
O3999      H4042   0.990       .  S
O4000      H4041   0.990       .  S
O4000      H4045   0.990       .  S
Zr4001     O4002   2.436       .  S
Zr4001     O4003   2.430       .  S
Zr4001     O4005   2.370       .  S
Zr4001     O4004   2.374       .  S
Zr4001     O4029   2.377       .  S
Zr4001     O4031   2.374       .  S
O4002      H4043   0.990       .  S
O4002      H4046   0.990       .  S
O4003      H4036   0.990       .  S
O4004     Zr4024   2.390       .  S
O4005     Zr4025   2.376       .  S
O4005      H4032   0.966       .  S
O4006     Zr4018   2.452       .  S
O4006      C4008   1.290       .  A
O4007     Zr4025   2.403       .  S
O4007      C4008   1.283       .  A
C4008      C4588   1.492       .  S
O4009     Zr4021   2.437       .  S
O4009      C4011   1.288       .  A
O4010     Zr4024   2.447       .  S
O4010      C4011   1.290       .  A
C4011      C4525   1.494       .  S
O4012     Zr4021   2.463       .  S
O4012      C4014   1.291       .  A
O4013     Zr4025   2.429       .  S
O4013      C4014   1.288       .  A
C4014      C4917   1.507       .  S
O4015     Zr4018   2.433       .  S
O4015      C4017   1.287       .  A
O4016     Zr4024   2.438       .  S
O4016      C4017   1.289       .  A
C4017      C5085   1.504       .  S
Zr4018     O4019   2.434       .  S
Zr4018     O4020   2.434       .  S
Zr4018     O4026   2.370       .  S
Zr4018     O4027   2.372       .  S
Zr4018     O4030   2.379       .  S
Zr4018     O4028   2.367       .  S
O4019      H4039   0.990       .  S
O4019      H4044   0.990       .  S
O4020      H4040   0.990       .  S
Zr4021     O4022   2.430       .  S
Zr4021     O4023   2.436       .  S
Zr4021     O4027   2.381       .  S
Zr4021     O4026   2.366       .  S
Zr4021     O4031   2.371       .  S
Zr4021     O4029   2.366       .  S
O4022      H4038   0.990       .  S
O4023      H4037   0.990       .  S
O4023      H4047   0.990       .  S
Zr4024     O4027   2.387       .  S
Zr4024     O4029   2.390       .  S
Zr4024     O4030   2.394       .  S
Zr4025     O4026   2.372       .  S
Zr4025     O4028   2.375       .  S
Zr4025     O4031   2.375       .  S
O4026      H4034   0.968       .  S
O4029      H4033   0.966       .  S
O4030      H4035   0.965       .  S
O4048     Zr4060   2.441       .  S
O4048      C4050   1.287       .  A
O4049      C4050   1.291       .  A
C4050      C4721   1.489       .  S
O4051     Zr4063   2.484       .  S
O4051      C4053   1.296       .  A
O4052      C4053   1.277       .  A
C4053      C4413   1.505       .  S
O4054     Zr4063   2.433       .  S
O4054      C4056   1.287       .  A
O4055      C4056   1.295       .  A
C4056      C4840   1.511       .  S
O4057     Zr4060   2.464       .  S
O4057      C4059   1.291       .  A
O4058      C4059   1.286       .  A
C4059      C4497   1.491       .  S
Zr4060     O4062   2.436       .  S
Zr4060     O4090   2.366       .  S
Zr4060     O4092   2.378       .  S
O4061      H4104   0.990       .  S
O4062      H4103   0.990       .  S
O4062      H4107   0.990       .  S
Zr4063     O4065   2.434       .  S
Zr4063     O4091   2.389       .  S
Zr4063     O4093   2.359       .  S
O4064      H4105   0.990       .  S
O4064      H4108   0.990       .  S
O4065      H4098   0.990       .  S
O4067      H4094   0.964       .  S
O4068     Zr4080   2.467       .  S
O4068      C4070   1.292       .  A
O4069     Zr4087   2.381       .  S
O4069      C4070   1.277       .  A
C4070      C4448   1.502       .  S
O4071     Zr4083   2.445       .  S
O4071      C4073   1.290       .  A
O4072     Zr4086   2.450       .  S
O4072      C4073   1.292       .  A
C4073      C4693   1.501       .  S
O4074     Zr4083   2.464   1_455  S
O4074      C4076   1.292       .  A
O4075     Zr4087   2.406       .  S
O4075      C4076   1.283   1_655  A
C4076      C4469   1.489       .  S
O4077     Zr4080   2.421       .  S
O4077      C4079   1.284       .  A
O4078     Zr4086   2.470       .  S
O4078      C4079   1.296       .  A
C4079      C4812   1.515       .  S
Zr4080     O4081   2.435       .  S
Zr4080     O4088   2.359       .  S
Zr4080     O4089   2.381       .  S
O4081      H4101   0.990       .  S
O4081      H4106   0.990       .  S
O4082      H4102   0.990       .  S
Zr4083     O4084   2.434       .  S
Zr4083     O4089   2.380       .  S
Zr4083     O4088   2.373       .  S
O4084      H4100   0.990       .  S
O4085      H4099   0.990       .  S
O4085      H4109   0.990       .  S
Zr4086     O4089   2.392       .  S
Zr4087     O4088   2.371       .  S
O4088      H4096   0.966       .  S
O4091      H4095   0.966       .  S
O4092      H4097   0.966       .  S
O4110     Zr4122   2.427       .  S
O4110      C4112   1.285       .  A
O4111      C4112   1.289       .  A
C4112      C5064   1.477       .  S
O4113     Zr4125   2.453       .  S
O4113      C4115   1.289       .  A
O4114      C4115   1.289       .  A
C4115      C4329   1.500       .  S
O4116     Zr4125   2.446       .  S
O4116      C4118   1.290       .  A
O4117      C4118   1.287       .  A
C4118      C4245   1.494   1_455  S
O4119     Zr4122   2.480       .  S
O4119      C4121   1.294       .  A
O4120      C4121   1.278       .  A
C4121      C4364   1.513       .  S
Zr4122     O4124   2.436       .  S
Zr4122     O4152   2.360       .  S
Zr4122     O4154   2.386       .  S
O4123      H4166   0.990       .  S
O4124      H4165   0.990       .  S
O4124      H4169   0.990       .  S
Zr4125     O4127   2.424   1_455  S
Zr4125     O4153   2.379   1_455  S
Zr4125     O4155   2.374   1_455  S
O4126      H4167   0.990       .  S
O4126      H4170   0.990       .  S
O4127      H4160   0.990       .  S
O4129      H4156   0.966       .  S
O4130     Zr4142   2.444       .  S
O4130      C4132   1.287   1_655  A
O4131     Zr4149   2.416       .  S
O4131      C4132   1.284   1_655  A
C4132      C4308   1.476       .  S
O4133     Zr4145   2.445       .  S
O4133      C4135   1.290       .  A
O4134     Zr4148   2.440       .  S
O4134      C4135   1.290       .  A
C4135      C5029   1.495       .  S
O4136     Zr4145   2.471       .  S
O4136      C4138   1.293       .  A
O4137     Zr4149   2.394       .  S
O4137      C4138   1.281       .  A
C4138      C4392   1.492       .  S
O4139     Zr4142   2.428       .  S
O4139      C4141   1.285       .  A
O4140     Zr4148   2.442       .  S
O4140      C4141   1.290       .  A
C4141      C4273   1.488       .  S
Zr4142     O4143   2.437       .  S
Zr4142     O4150   2.373       .  S
Zr4142     O4151   2.370       .  S
O4143      H4163   0.990       .  S
O4143      H4168   0.990       .  S
O4144      H4164   0.990       .  S
Zr4145     O4146   2.433       .  S
Zr4145     O4151   2.376       .  S
Zr4145     O4150   2.366       .  S
O4146      H4162   0.990       .  S
O4147      H4161   0.989       .  S
O4147      H4171   0.989       .  S
Zr4148     O4151   2.388       .  S
Zr4149     O4150   2.376       .  S
O4150      H4158   0.966       .  S
O4153      H4157   0.965       .  S
O4154      H4159   0.965       .  S
N4172      H4204   1.039       .  S
N4172      C4177   1.357       .  A
N4172      C4176   1.356       .  A
N4173      C4180   1.350       .  A
N4173      C4181   1.351       .  A
N4174      H4205   1.039       .  S
N4174      C4179   1.354       .  A
N4174      C4178   1.355       .  A
N4175      C4182   1.350       .  A
N4175      C4183   1.350       .  A
C4176      C4184   1.386       .  A
C4176      C4192   1.418       .  A
C4177      C4193   1.420       .  A
C4177      C4185   1.387       .  A
C4178      C4186   1.388       .  A
C4178      C4195   1.418       .  A
C4179      C4194   1.412       .  A
C4179      C4187   1.385       .  A
C4180      C4192   1.416       .  A
C4180      C4188   1.387       .  A
C4181      C4195   1.416       .  A
C4181      C4189   1.386       .  A
C4182      C4190   1.387       .  A
C4182      C4193   1.417       .  A
C4183      C4191   1.385       .  A
C4183      C4194   1.414       .  A
C4184      C4185   1.372       .  A
C4184      H4196   1.083       .  S
C4185      H4197   1.082       .  S
C4186      C4187   1.369       .  A
C4186      H4198   1.082       .  S
C4187      H4199   1.083       .  S
C4188      C4189   1.376       .  A
C4188      H4200   1.081       .  S
C4189      H4201   1.082       .  S
C4190      C4191   1.376       .  A
C4190      H4202   1.082       .  S
C4191      H4203   1.081       .  S
C4192      C4476   1.503       .  S
C4193      C4504   1.505       .  S
C4194      C4336   1.499       .  S
C4195      C4301   1.502       .  S
N4206      H4238   1.038       .  S
N4206      C4211   1.352       .  A
N4206      C4210   1.354       .  A
N4207      C4214   1.350       .  A
N4207      C4215   1.350       .  A
N4208      H4239   1.037       .  S
N4208      C4213   1.352       .  A
N4208      C4212   1.351       .  A
N4209      C4216   1.348       .  A
N4209      C4217   1.349       .  A
C4210      C4218   1.386       .  A
C4210      C4226   1.413       .  A
C4211      C4227   1.413       .  A
C4211      C4219   1.388       .  A
C4212      C4220   1.388       .  A
C4212      C4229   1.413       .  A
C4213      C4228   1.411       .  A
C4213      C4221   1.387       .  A
C4214      C4226   1.412       .  A
C4214      C4222   1.385   1_565  A
C4215      C4229   1.412       .  A
C4215      C4223   1.386   1_565  A
C4216      C4224   1.386       .  A
C4216      C4227   1.409       .  A
C4217      C4225   1.386       .  A
C4217      C4228   1.409       .  A
C4218      C4219   1.371       .  A
C4218      H4230   1.082       .  S
C4219      H4231   1.082       .  S
C4220      C4221   1.371       .  A
C4220      H4232   1.082       .  S
C4221      H4233   1.082       .  S
C4222      C4223   1.377       .  A
C4222      H4234   1.082       .  S
C4223      H4235   1.082       .  S
C4224      C4225   1.375       .  A
C4224      H4236   1.082       .  S
C4225      H4237   1.082       .  S
C4226      C4420   1.497       .  S
C4227      C4441   1.486       .  S
C4228      C4385   1.488       .  S
C4229      C4357   1.491       .  S
C4240      C4252   1.618       .  S
C4240      C4280   1.610       .  S
C4240      C4560   1.619       .  S
C4241      C4246   1.417       .  A
C4241      C4259   1.451       .  S
C4242      C4243   1.410       .  A
C4242      C4247   1.501       .  S
C4243      C4244   1.408       .  A
C4243      C4248   1.451       .  S
C4244      C4245   1.417       .  A
C4244      C4260   1.451       .  S
C4246      C4249   1.450       .  S
C4247      C4254   1.397       .  A
C4248      N4265   1.157       .  T
C4249      N4267   1.157       .  T
C4250      C4251   1.421       .  A
C4250      C4255   1.455       .  S
C4251      C4257   1.449       .  S
C4252      C4253   1.453       .  A
C4253      C4254   1.416       .  A
C4253      C4256   1.447       .  S
C4254      C4258   1.456       .  S
C4255      N4262   1.157       .  T
C4256      N4263   1.157       .  T
C4257      N4261   1.157       .  T
C4258      N4264   1.157       .  T
C4259      N4268   1.157       .  T
C4260      N4266   1.157       .  T
C4269      C4270   1.414       .  A
C4269      C4274   1.413       .  A
C4269      C4287   1.451       .  S
C4270      C4275   1.508       .  S
C4271      C4272   1.410       .  A
C4271      C4276   1.450       .  S
C4272      C4288   1.449       .  S
C4273      C4274   1.415       .  A
C4274      C4277   1.452       .  S
C4275      C4282   1.400       .  A
C4276      N4293   1.157       .  T
C4277      N4295   1.158       .  T
C4278      C4279   1.416       .  A
C4278      C4283   1.456       .  S
C4279      C4285   1.447       .  S
C4280      C4281   1.450       .  A
C4281      C4282   1.416       .  A
C4281      C4284   1.450       .  S
C4282      C4286   1.454       .  S
C4283      N4290   1.157       .  T
C4284      N4291   1.157       .  T
C4285      N4289   1.157       .  T
C4286      N4292   1.157       .  T
C4287      N4296   1.157       .  T
C4288      N4294   1.157       .  T
C4297      C4298   1.414       .  A
C4297      C4302   1.413       .  A
C4298      C4299   1.413       .  A
C4299      C4300   1.407       .  A
C4299      C4304   1.453       .  S
C4300      C4301   1.416       .  A
C4300      C4316   1.451       .  S
C4301      C4302   1.414       .  A
C4302      C4305   1.450       .  S
C4303      C4306   1.417   1_455  A
C4304      N4321   1.157       .  T
C4305      N4323   1.157       .  T
C4306      C4307   1.411       .  A
C4306      C4311   1.450       .  S
C4307      C4308   1.408   1_655  A
C4307      C4313   1.450       .  S
C4309      C4310   1.403       .  A
C4309      C4312   1.449       .  S
C4310      C4314   1.450       .  S
C4311      N4318   1.157       .  T
C4312      N4319   1.157       .  T
C4313      N4317   1.157       .  T
C4314      N4320   1.157       .  T
C4315      N4324   1.157       .  T
C4316      N4322   1.157       .  T
C4325      C4326   1.410       .  A
C4325      C4330   1.407       .  A
C4325      C4343   1.453       .  S
C4326      C4331   1.504       .  S
C4327      C4328   1.416       .  A
C4327      C4332   1.451       .  S
C4328      C4329   1.418   1_655  A
C4328      C4344   1.449       .  S
C4330      C4333   1.446       .  S
C4331      C4338   1.413       .  A
C4332      N4349   1.157       .  T
C4333      N4351   1.155       .  T
C4334      C4335   1.415       .  A
C4334      C4339   1.450       .  S
C4335      C4341   1.449       .  S
C4336      C4337   1.414       .  A
C4337      C4338   1.407       .  A
C4337      C4340   1.452       .  S
C4338      C4342   1.452       .  S
C4339      N4346   1.157       .  T
C4340      N4347   1.157       .  T
C4341      N4345   1.157       .  T
C4342      N4348   1.157       .  T
C4343      N4352   1.157       .  T
C4344      N4350   1.157       .  T
C4353      C4358   1.410       .  A
C4353      C4371   1.450       .  S
C4354      C4355   1.413       .  A
C4354      C4359   1.495       .  S
C4355      C4356   1.410       .  A
C4355      C4360   1.450       .  S
C4356      C4357   1.411       .  A
C4356      C4372   1.450       .  S
C4358      C4361   1.450       .  S
C4359      C4366   1.403       .  A
C4360      N4377   1.157       .  T
C4361      N4379   1.157       .  T
C4362      C4363   1.415       .  A
C4362      C4367   1.451       .  S
C4363      C4364   1.423       .  A
C4363      C4369   1.450       .  S
C4365      C4366   1.408   1_545  A
C4365      C4368   1.453       .  S
C4366      C4370   1.453   1_565  S
C4367      N4374   1.157       .  T
C4368      N4375   1.158       .  T
C4369      N4373   1.157       .  T
C4370      N4376   1.157       .  T
C4371      N4380   1.157       .  T
C4372      N4378   1.157       .  T
C4381      C4382   1.411       .  A
C4381      C4386   1.409       .  A
C4381      C4399   1.449       .  S
C4382      C4387   1.492       .  S
C4383      C4384   1.408       .  A
C4383      C4388   1.451       .  S
C4384      C4385   1.410       .  A
C4384      C4400   1.450       .  S
C4386      C4389   1.450       .  S
C4387      C4394   1.410       .  A
C4388      N4405   1.157       .  T
C4389      N4407   1.157       .  T
C4390      C4391   1.406       .  A
C4390      C4395   1.454       .  S
C4391      C4397   1.448       .  S
C4392      C4393   1.417       .  A
C4393      C4394   1.412       .  A
C4393      C4396   1.450       .  S
C4394      C4398   1.450       .  S
C4395      N4402   1.157       .  T
C4396      N4403   1.157       .  T
C4397      N4401   1.155       .  T
C4398      N4404   1.157       .  T
C4399      N4408   1.157       .  T
C4400      N4406   1.157       .  T
C4409      C4414   1.406       .  A
C4409      C4427   1.455       .  S
C4410      C4411   1.410       .  A
C4410      C4415   1.500       .  S
C4411      C4412   1.418       .  A
C4411      C4416   1.451       .  S
C4412      C4428   1.450       .  S
C4413      C4414   1.431       .  A
C4414      C4417   1.451       .  S
C4415      C4422   1.412       .  A
C4416      N4433   1.157       .  T
C4417      N4435   1.157       .  T
C4418      C4419   1.407       .  A
C4418      C4423   1.451       .  S
C4419      C4425   1.451       .  S
C4420      C4421   1.412       .  A
C4421      C4422   1.412       .  A
C4421      C4424   1.450       .  S
C4422      C4426   1.450       .  S
C4423      N4430   1.157       .  T
C4424      N4431   1.157       .  T
C4425      N4429   1.157       .  T
C4426      N4432   1.157       .  T
C4427      N4436   1.157       .  T
C4428      N4434   1.157       .  T
C4437      C4438   1.411       .  A
C4437      C4442   1.407       .  A
C4437      C4455   1.451       .  S
C4438      C4443   1.488       .  S
C4439      C4440   1.407       .  A
C4439      C4444   1.451       .  S
C4440      C4441   1.410       .  A
C4440      C4456   1.450       .  S
C4442      C4445   1.450       .  S
C4443      C4446   1.408       .  A
C4444      N4461   1.157       .  T
C4445      N4463   1.157       .  T
C4446      C4447   1.412       .  A
C4446      C4451   1.452       .  S
C4447      C4448   1.422       .  A
C4447      C4453   1.451       .  S
C4449      C4450   1.406       .  A
C4449      C4452   1.455       .  S
C4450      C4454   1.456       .  S
C4451      N4458   1.157       .  T
C4452      N4459   1.158       .  T
C4453      N4457   1.158       .  T
C4454      N4460   1.157       .  T
C4455      N4464   1.157       .  T
C4456      N4462   1.157       .  T
C4465      C4470   1.413       .  A
C4465      C4483   1.450       .  S
C4466      C4467   1.411   1_455  A
C4467      C4468   1.408       .  A
C4467      C4472   1.453       .  S
C4468      C4469   1.416   1_655  A
C4468      C4484   1.449       .  S
C4470      C4473   1.450       .  S
C4471      C4474   1.414       .  A
C4472      N4489   1.157       .  T
C4473      N4491   1.157       .  T
C4474      C4475   1.414       .  A
C4474      C4479   1.450       .  S
C4475      C4476   1.415       .  A
C4475      C4481   1.449       .  S
C4477      C4478   1.405       .  A
C4477      C4480   1.451       .  S
C4478      C4482   1.452       .  S
C4479      N4486   1.157       .  T
C4480      N4487   1.157       .  T
C4481      N4485   1.157       .  T
C4482      N4488   1.157       .  T
C4483      N4492   1.157       .  T
C4484      N4490   1.156       .  T
C4493      C4498   1.411       .  A
C4493      C4511   1.451       .  S
C4494      C4495   1.417       .  A
C4494      C4499   1.502       .  S
C4495      C4496   1.411       .  A
C4495      C4500   1.450       .  S
C4496      C4512   1.451       .  S
C4497      C4498   1.411       .  A
C4498      C4501   1.448       .  S
C4499      C4502   1.414       .  A
C4500      N4517   1.157       .  T
C4501      N4519   1.157       .  T
C4502      C4503   1.413       .  A
C4502      C4507   1.451       .  S
C4503      C4504   1.415       .  A
C4503      C4509   1.450       .  S
C4505      C4506   1.411       .  A
C4505      C4508   1.451       .  S
C4506      C4510   1.451       .  S
C4507      N4514   1.157       .  T
C4508      N4515   1.157       .  T
C4509      N4513   1.157       .  T
C4510      N4516   1.157       .  T
C4511      N4520   1.157       .  T
C4512      N4518   1.157       .  T
C4521      C4522   1.413       .  A
C4521      C4526   1.410       .  A
C4521      C4539   1.451       .  S
C4522      C4523   1.415       .  A
C4522      C4527   1.509       .  S
C4523      C4524   1.417       .  A
C4523      C4528   1.450       .  S
C4524      C4525   1.415       .  A
C4524      C4540   1.449       .  S
C4525      C4526   1.415       .  A
C4526      C4529   1.452       .  S
C4527      C4530   1.400       .  A
C4527      C4534   1.402       .  A
C4528      N4545   1.157       .  T
C4529      N4547   1.157       .  T
C4530      C4531   1.418       .  A
C4530      C4535   1.457       .  S
C4531      C4532   1.454       .  A
C4531      C4537   1.451       .  S
C4532      C4533   1.447       .  A
C4533      C4534   1.420       .  A
C4533      C4536   1.451       .  S
C4534      C4538   1.454       .  S
C4535      N4542   1.157       .  T
C4537      N4541   1.158       .  T
C4538      N4544   1.157       .  T
C4539      N4548   1.157       .  T
C4540      N4546   1.157       .  T
C4549      C4550   1.416       .  A
C4549      C4554   1.413       .  A
C4549      C4567   1.450       .  S
C4550      C4551   1.415       .  A
C4550      C4555   1.513       .  S
C4551      C4552   1.417       .  A
C4551      C4556   1.450       .  S
C4552      C4553   1.412       .  A
C4552      C4568   1.450       .  S
C4553      C4554   1.412       .  A
C4554      C4557   1.452       .  S
C4555      C4558   1.402       .  A
C4555      C4562   1.401       .  A
C4556      N4573   1.157       .  T
C4557      N4575   1.157       .  T
C4558      C4559   1.421       .  A
C4558      C4563   1.454       .  S
C4559      C4560   1.452       .  A
C4559      C4565   1.452       .  S
C4560      C4561   1.452       .  A
C4561      C4562   1.421       .  A
C4561      C4564   1.447       .  S
C4562      C4566   1.457       .  S
C4563      N4570   1.157       .  T
C4565      N4569   1.157       .  T
C4566      N4572   1.157       .  T
C4567      N4576   1.157       .  T
C4568      N4574   1.157       .  T
C4577      C4578   1.412       .  A
C4577      C4582   1.406       .  A
C4577      C4595   1.452       .  S
C4578      C4579   1.412       .  A
C4578      C4583   1.489       .  S
C4579      C4580   1.404       .  A
C4579      C4584   1.451       .  S
C4580      C4581   1.409       .  A
C4580      C4596   1.451       .  S
C4581      C4582   1.410       .  A
C4582      C4585   1.450       .  S
C4583      C4586   1.405       .  A
C4583      C4590   1.411       .  A
C4584      N4601   1.157       .  T
C4585      N4603   1.157       .  T
C4586      C4587   1.404       .  A
C4586      C4591   1.454       .  S
C4587      C4588   1.421       .  A
C4587      C4593   1.447       .  S
C4588      C4589   1.418       .  A
C4589      C4590   1.411       .  A
C4589      C4592   1.450       .  S
C4590      C4594   1.452       .  S
C4591      N4598   1.157       .  T
C4592      N4599   1.157       .  T
C4593      N4597   1.155       .  T
C4594      N4600   1.157       .  T
C4595      N4604   1.157       .  T
C4596      N4602   1.157       .  T
C4605      C4606   1.406       .  A
C4605      C4610   1.405       .  A
C4605      C4623   1.452       .  S
C4606      C4607   1.409       .  A
C4606      C4611   1.486       .  S
C4607      C4608   1.408       .  A
C4607      C4612   1.451       .  S
C4608      C4609   1.415       .  A
C4608      C4624   1.449       .  S
C4609      C4610   1.417       .  A
C4610      C4613   1.448       .  S
C4611      C4614   1.411       .  A
C4611      C4618   1.410       .  A
C4612      N4629   1.157       .  T
C4613      N4631   1.155       .  T
C4614      C4615   1.406       .  A
C4614      C4619   1.451       .  S
C4615      C4616   1.410       .  A
C4615      C4621   1.450       .  S
C4616      C4617   1.410       .  A
C4617      C4618   1.405       .  A
C4617      C4620   1.450       .  S
C4618      C4622   1.451       .  S
C4619      N4626   1.157       .  T
C4620      N4627   1.157       .  T
C4621      N4625   1.157       .  T
C4622      N4628   1.157       .  T
C4623      N4632   1.157       .  T
C4624      N4630   1.157       .  T
C4633      C4634   1.410       .  A
C4633      C4638   1.407       .  A
C4633      C4651   1.451       .  S
C4634      C4635   1.412       .  A
C4634      C4639   1.497       .  S
C4635      C4636   1.414       .  A
C4635      C4640   1.451       .  S
C4636      C4637   1.415       .  A
C4636      C4652   1.450       .  S
C4637      C4638   1.414       .  A
C4638      C4641   1.450       .  S
C4639      C4642   1.411       .  A
C4639      C4646   1.408       .  A
C4640      N4657   1.157       .  T
C4641      N4659   1.157       .  T
C4642      C4643   1.413       .  A
C4642      C4647   1.450       .  S
C4643      C4644   1.416       .  A
C4643      C4649   1.448       .  S
C4644      C4645   1.416       .  A
C4645      C4646   1.408       .  A
C4645      C4648   1.447       .  S
C4646      C4650   1.452       .  S
C4647      N4654   1.157       .  T
C4648      N4655   1.155       .  T
C4649      N4653   1.157       .  T
C4650      N4656   1.157       .  T
C4651      N4660   1.157       .  T
C4652      N4658   1.157       .  T
C4661      C4662   1.415       .  A
C4661      C4666   1.412       .  A
C4661      C4679   1.451       .  S
C4662      C4663   1.411       .  A
C4662      C4667   1.497       .  S
C4663      C4664   1.407       .  A
C4663      C4668   1.451       .  S
C4664      C4665   1.411       .  A
C4664      C4680   1.449       .  S
C4665      C4666   1.410       .  A
C4666      C4669   1.450       .  S
C4667      C4670   1.414       .  A
C4667      C4674   1.413       .  A
C4668      N4685   1.157       .  T
C4669      N4687   1.157       .  T
C4670      C4671   1.411       .  A
C4670      C4675   1.450       .  S
C4671      C4672   1.412       .  A
C4671      C4677   1.451       .  S
C4672      C4673   1.410       .  A
C4673      C4674   1.404       .  A
C4673      C4676   1.451       .  S
C4674      C4678   1.451       .  S
C4675      N4682   1.157       .  T
C4676      N4683   1.157       .  T
C4677      N4681   1.157       .  T
C4678      N4684   1.157       .  T
C4679      N4688   1.157       .  T
C4680      N4686   1.157       .  T
C4689      C4690   1.415   1_455  A
C4689      C4694   1.412       .  A
C4689      C4707   1.451       .  S
C4690      C4695   1.515       .  S
C4691      C4692   1.417       .  A
C4691      C4696   1.449       .  S
C4692      C4708   1.450       .  S
C4693      C4694   1.416   1_655  A
C4694      C4697   1.451       .  S
C4695      C4698   1.403       .  A
C4696      N4713   1.157       .  T
C4697      N4715   1.157       .  T
C4698      C4699   1.423       .  A
C4698      C4703   1.455       .  S
C4699      C4700   1.450       .  A
C4699      C4705   1.449       .  S
C4701      C4702   1.421       .  A
C4701      C4704   1.450       .  S
C4702      C4706   1.453       .  S
C4703      N4710   1.157       .  T
C4704      N4711   1.157       .  T
C4705      N4709   1.157       .  T
C4706      N4712   1.157       .  T
C4707      N4716   1.157       .  T
C4708      N4714   1.157       .  T
C4717      C4722   1.413       .  A
C4717      C4735   1.450       .  S
C4718      C4719   1.414       .  A
C4718      C4723   1.511       .  S
C4719      C4720   1.414       .  A
C4719      C4724   1.450       .  S
C4720      C4721   1.413       .  A
C4720      C4736   1.451       .  S
C4722      C4725   1.452       .  S
C4723      C4726   1.400       .  A
C4723      C4730   1.401       .  A
C4724      N4741   1.157       .  T
C4725      N4743   1.157       .  T
C4726      C4727   1.421       .  A
C4726      C4731   1.455       .  S
C4727      C4728   1.451       .  A
C4727      C4733   1.450       .  S
C4728      C4729   1.452       .  A
C4729      C4730   1.423       .  A
C4730      C4734   1.456       .  S
C4731      N4738   1.157       .  T
C4732      N4739   1.157       .  T
C4733      N4737   1.157       .  T
C4734      N4740   1.157       .  T
C4735      N4744   1.157       .  T
C4736      N4742   1.157       .  T
C4745      C4746   1.419       .  A
C4745      C4750   1.414       .  A
C4745      C4763   1.450       .  S
C4746      C4747   1.419       .  A
C4746      C4751   1.519       .  S
C4747      C4748   1.416       .  A
C4747      C4752   1.449       .  S
C4748      C4749   1.409       .  A
C4748      C4764   1.450       .  S
C4749      C4750   1.412       .  A
C4750      C4753   1.453       .  S
C4751      C4754   1.408       .  A
C4751      C4758   1.404       .  A
C4752      N4769   1.157       .  T
C4753      N4771   1.158       .  T
C4754      C4755   1.424       .  A
C4754      C4759   1.453       .  S
C4755      C4756   1.447       .  A
C4755      C4761   1.449       .  S
C4756      C4757   1.449       .  A
C4757      C4758   1.417       .  A
C4757      C4760   1.448       .  S
C4758      C4762   1.455       .  S
C4759      N4766   1.157       .  T
C4760      N4767   1.157       .  T
C4762      N4768   1.157       .  T
C4763      N4772   1.157       .  T
C4764      N4770   1.157       .  T
C4773      C4774   1.398       .  A
C4773      C4778   1.422       .  A
C4773      C4791   1.458       .  S
C4774      C4775   1.400       .  A
C4774      C4779   1.512       .  S
C4775      C4776   1.421       .  A
C4775      C4780   1.455       .  S
C4776      C4777   1.449       .  A
C4776      C4792   1.448       .  S
C4777      C4778   1.460       .  A
C4778      C4781   1.449       .  S
C4779      C4782   1.414       .  A
C4779      C4786   1.413       .  A
C4780      N4797   1.157       .  T
C4781      N4799   1.157       .  T
C4782      C4783   1.417       .  A
C4782      C4787   1.451       .  S
C4783      C4784   1.415       .  A
C4783      C4789   1.448       .  S
C4784      C4785   1.417       .  A
C4785      C4786   1.414       .  A
C4785      C4788   1.451       .  S
C4786      C4790   1.452       .  S
C4787      N4794   1.157       .  T
C4788      N4795   1.157       .  T
C4789      N4793   1.157       .  T
C4790      N4796   1.157       .  T
C4791      N4800   1.157       .  T
C4792      N4798   1.157       .  T
C4801      C4802   1.398       .  A
C4801      C4806   1.419       .  A
C4801      C4819   1.457       .  S
C4802      C4807   1.509       .  S
C4803      C4804   1.424       .  A
C4803      C4808   1.453       .  S
C4804      C4820   1.448       .  S
C4805      C4806   1.453       .  A
C4806      C4809   1.447       .  S
C4807      C4814   1.406       .  A
C4808      N4825   1.157       .  T
C4809      N4827   1.157       .  T
C4810      C4811   1.418       .  A
C4810      C4815   1.448       .  S
C4811      C4817   1.449       .  S
C4812      C4813   1.429       .  A
C4813      C4814   1.412       .  A
C4813      C4816   1.451       .  S
C4814      C4818   1.454       .  S
C4815      N4822   1.157       .  T
C4816      N4823   1.157       .  T
C4817      N4821   1.157       .  T
C4818      N4824   1.157       .  T
C4819      N4828   1.157       .  T
C4820      N4826   1.157       .  T
C4829      C4834   1.418       .  A
C4829      C4847   1.456       .  S
C4830      C4831   1.402       .  A
C4830      C4835   1.507       .  S
C4831      C4832   1.420       .  A
C4831      C4836   1.454       .  S
C4832      C4833   1.449       .  A
C4832      C4848   1.448       .  S
C4834      C4837   1.444       .  S
C4835      C4838   1.413       .  A
C4836      N4853   1.157       .  T
C4837      N4855   1.156       .  T
C4838      C4839   1.419       .  A
C4838      C4843   1.449       .  S
C4839      C4840   1.421       .  A
C4839      C4845   1.450       .  S
C4841      C4842   1.412       .  A
C4841      C4844   1.451       .  S
C4842      C4846   1.453       .  S
C4843      N4850   1.157       .  T
C4844      N4851   1.157       .  T
C4845      N4849   1.158       .  T
C4846      N4852   1.157       .  T
C4847      N4856   1.157       .  T
C4848      N4854   1.157       .  T
C4857      C4858   1.399       .  A
C4857      C4862   1.417       .  A
C4857      C4875   1.456       .  S
C4858      C4859   1.405       .  A
C4858      C4863   1.507       .  S
C4859      C4860   1.421       .  A
C4859      C4864   1.455       .  S
C4860      C4861   1.448       .  A
C4860      C4876   1.448       .  S
C4861      C4862   1.450       .  A
C4862      C4865   1.446       .  S
C4863      C4866   1.403       .  A
C4863      C4870   1.412       .  A
C4864      N4881   1.157       .  T
C4865      N4883   1.157       .  T
C4866      C4867   1.410       .  A
C4866      C4871   1.456       .  S
C4867      C4868   1.435       .  A
C4867      C4873   1.451       .  S
C4868      C4869   1.423       .  A
C4869      C4870   1.420       .  A
C4869      C4872   1.450       .  S
C4870      C4874   1.449       .  S
C4871      N4878   1.157       .  T
C4872      N4879   1.158       .  T
C4873      N4877   1.157       .  T
C4874      N4880   1.157       .  T
C4875      N4884   1.157       .  T
C4876      N4882   1.157       .  T
C4885      C4886   1.402       .  A
C4885      C4890   1.420       .  A
C4885      C4903   1.455       .  S
C4886      C4887   1.404       .  A
C4886      C4891   1.515       .  S
C4887      C4888   1.424       .  A
C4887      C4892   1.452       .  S
C4888      C4889   1.447       .  A
C4888      C4904   1.449       .  S
C4889      C4890   1.449       .  A
C4890      C4893   1.447       .  S
C4891      C4894   1.409       .  A
C4891      C4898   1.415       .  A
C4892      N4909   1.157       .  T
C4893      N4911   1.157       .  T
C4894      C4895   1.415       .  A
C4894      C4899   1.452       .  S
C4895      C4896   1.421       .  A
C4895      C4901   1.448       .  S
C4896      C4897   1.420       .  A
C4897      C4898   1.422       .  A
C4897      C4900   1.449       .  S
C4898      C4902   1.448       .  S
C4899      N4906   1.157       .  T
C4900      N4907   1.158       .  T
C4901      N4905   1.156       .  T
C4902      N4908   1.157       .  T
C4903      N4912   1.157       .  T
C4904      N4910   1.157   1_565  T
C4913      C4914   1.410       .  A
C4913      C4918   1.415       .  A
C4913      C4931   1.452       .  S
C4914      C4915   1.407       .  A
C4914      C4919   1.501       .  S
C4915      C4916   1.412       .  A
C4915      C4920   1.451       .  S
C4916      C4917   1.421       .  A
C4916      C4932   1.448       .  S
C4917      C4918   1.421       .  A
C4918      C4921   1.448       .  S
C4919      C4922   1.412       .  A
C4919      C4926   1.413       .  A
C4920      N4937   1.157       .  T
C4921      N4939   1.157       .  T
C4922      C4923   1.411       .  A
C4922      C4927   1.450       .  S
C4923      C4924   1.413       .  A
C4923      C4929   1.451       .  S
C4924      C4925   1.412       .  A
C4925      C4926   1.412       .  A
C4925      C4928   1.450       .  S
C4926      C4930   1.450       .  S
C4927      N4934   1.157       .  T
C4928      N4935   1.157       .  T
C4929      N4933   1.157       .  T
C4930      N4936   1.157       .  T
C4931      N4940   1.157       .  T
C4932      N4938   1.156       .  T
C4941      C4942   1.405       .  A
C4941      C4946   1.412       .  A
C4941      C4959   1.453       .  S
C4942      C4943   1.409       .  A
C4942      C4947   1.501       .  S
C4943      C4944   1.417       .  A
C4943      C4948   1.451       .  S
C4944      C4945   1.422       .  A
C4944      C4960   1.449       .  S
C4945      C4946   1.426       .  A
C4946      C4949   1.446       .  S
C4947      C4950   1.413       .  A
C4947      C4954   1.411       .  A
C4948      N4965   1.157       .  T
C4949      N4967   1.155       .  T
C4950      C4951   1.412       .  A
C4950      C4955   1.450       .  S
C4951      C4952   1.412       .  A
C4951      C4957   1.450       .  S
C4952      C4953   1.413       .  A
C4953      C4954   1.412       .  A
C4953      C4956   1.450       .  S
C4954      C4958   1.450       .  S
C4955      N4962   1.157       .  T
C4956      N4963   1.157       .  T
C4957      N4961   1.157       .  T
C4958      N4964   1.157       .  T
C4959      N4968   1.157       .  T
C4960      N4966   1.157       .  T
C4969      C4970   1.406       .  A
C4969      C4974   1.410       .  A
C4969      C4987   1.454       .  S
C4970      C4971   1.411       .  A
C4970      C4975   1.501       .  S
C4971      C4972   1.415       .  A
C4971      C4976   1.451       .  S
C4972      C4973   1.422       .  A
C4972      C4988   1.450       .  S
C4973      C4974   1.428       .  A
C4974      C4977   1.451       .  S
C4975      C4978   1.413       .  A
C4975      C4982   1.414       .  A
C4976      N4993   1.157       .  T
C4977      N4995   1.157       .  T
C4978      C4979   1.411       .  A
C4978      C4983   1.451       .  S
C4979      C4980   1.413       .  A
C4979      C4985   1.450       .  S
C4980      C4981   1.411       .  A
C4981      C4982   1.409       .  A
C4981      C4984   1.451       .  S
C4982      C4986   1.451       .  S
C4983      N4990   1.157       .  T
C4984      N4991   1.157       .  T
C4985      N4989   1.157       .  T
C4986      N4992   1.157       .  T
C4987      N4996   1.157       .  T
C4988      N4994   1.157       .  T
C4997      C4998   1.404       .  A
C4997      C5002   1.405       .  A
C4997      C5015   1.455       .  S
C4998      C4999   1.408       .  A
C4998      C5003   1.488       .  S
C4999      C5000   1.411       .  A
C4999      C5004   1.451       .  S
C5000      C5001   1.422       .  A
C5000      C5016   1.451       .  S
C5001      C5002   1.433       .  A
C5002      C5005   1.455       .  S
C5003      C5006   1.412       .  A
C5003      C5010   1.412       .  A
C5004      N5021   1.157       .  T
C5005      N5023   1.158       .  T
C5006      C5007   1.405       .  A
C5006      C5011   1.451       .  S
C5007      C5008   1.410       .  A
C5007      C5013   1.451       .  S
C5008      C5009   1.408       .  A
C5009      C5010   1.405       .  A
C5009      C5012   1.450       .  S
C5010      C5014   1.450       .  S
C5011      N5018   1.157       .  T
C5012      N5019   1.157       .  T
C5013      N5017   1.157       .  T
C5014      N5020   1.157       .  T
C5015      N5024   1.157       .  T
C5016      N5022   1.157       .  T
C5025      C5030   1.417       .  A
C5025      C5043   1.451       .  S
C5026      C5027   1.410       .  A
C5026      C5031   1.501       .  S
C5027      C5028   1.408       .  A
C5027      C5032   1.452       .  S
C5028      C5029   1.416       .  A
C5028      C5044   1.450       .  S
C5030      C5033   1.448       .  S
C5031      C5038   1.402       .  A
C5032      N5049   1.157       .  T
C5033      N5051   1.157       .  T
C5034      C5035   1.417       .  A
C5034      C5039   1.457       .  S
C5035      C5041   1.449       .  S
C5036      C5037   1.446       .  A
C5037      C5038   1.419       .  A
C5037      C5040   1.450       .  S
C5038      C5042   1.454       .  S
C5039      N5046   1.157       .  T
C5040      N5047   1.157       .  T
C5041      N5045   1.157       .  T
C5042      N5048   1.157       .  T
C5043      N5052   1.157       .  T
C5044      N5050   1.157       .  T
C5053      C5058   1.421       .  A
C5053      C5071   1.456       .  S
C5054      C5055   1.400       .  A
C5054      C5059   1.501       .  S
C5055      C5056   1.418       .  A
C5055      C5060   1.454       .  S
C5056      C5057   1.451       .  A
C5056      C5072   1.452       .  S
C5058      C5061   1.446       .  S
C5059      C5062   1.415       .  A
C5060      N5077   1.157       .  T
C5061      N5079   1.157       .  T
C5062      C5063   1.407       .  A
C5062      C5067   1.449       .  S
C5063      C5064   1.409       .  A
C5063      C5069   1.453       .  S
C5065      C5066   1.416       .  A
C5065      C5068   1.449       .  S
C5066      C5070   1.451       .  S
C5067      N5074   1.157       .  T
C5068      N5075   1.157       .  T
C5069      N5073   1.157       .  T
C5070      N5076   1.157       .  T
C5071      N5080   1.157       .  T
C5072      N5078   1.157       .  T
C5081      C5082   1.408       .  A
C5081      C5086   1.409       .  A
C5081      C5099   1.453       .  S
C5082      C5083   1.409       .  A
C5082      C5087   1.498       .  S
C5083      C5084   1.413       .  A
C5083      C5088   1.452       .  S
C5084      C5085   1.423       .  A
C5084      C5100   1.450       .  S
C5085      C5086   1.424       .  A
C5086      C5089   1.451       .  S
C5087      C5090   1.401       .  A
C5087      C5094   1.394       .  A
C5088      N5105   1.157       .  T
C5089      N5107   1.157       .  T
C5090      C5091   1.420       .  A
C5090      C5095   1.454       .  S
C5091      C5092   1.449       .  A
C5091      C5097   1.448       .  S
C5092      C5093   1.450       .  A
C5093      C5094   1.410       .  A
C5093      C5096   1.443       .  S
C5094      C5098   1.458       .  S
C5095      N5102   1.157       .  T
C5096      N5103   1.155       .  T
C5097      N5101   1.157       .  T
C5098      N5104   1.157       .  T
C5099      N5108   1.157       .  T
C5100      N5106   1.158       .  T
C5109      C5110   1.403       .  A
C5109      C5114   1.419       .  A
C5109      C5127   1.456       .  S
C5110      C5111   1.401       .  A
C5110      C5115   1.511       .  S
C5111      C5112   1.420       .  A
C5111      C5116   1.454       .  S
C5112      C5113   1.450       .  A
C5112      C5128   1.448       .  S
C5113      C5114   1.448       .  A
C5114      C5117   1.444       .  S
C5115      C5118   1.418       .  A
C5115      C5122   1.415       .  A
C5116      N5133   1.157       .  T
C5117      N5135   1.156   1_565  T
C5118      C5119   1.413       .  A
C5118      C5123   1.449       .  S
C5119      C5120   1.408       .  A
C5119      C5125   1.448       .  S
C5120      C5121   1.413       .  A
C5121      C5122   1.411       .  A
C5121      C5124   1.452       .  S
C5122      C5126   1.451       .  S
C5123      N5130   1.157       .  T
C5124      N5131   1.157       .  T
C5125      N5129   1.157       .  T
C5126      N5132   1.157       .  T
C5127      N5136   1.157       .  T
C5128      N5134   1.157       .  T
