geometry optimzed in LAMMPS
_audit_creation_date              2020-12-01 
_audit_creation_method            'lammps2cif' 
_symmetry_space_group_name_H-M    'P1' 
_symmetry_Int_Tables_number       1 
_symmetry_cell_setting            triclinic 
loop_ 
_symmetry_equiv_pos_as_xyz 
  x,y,z 
_cell_length_a                    42.00135453 
_cell_length_b                    40.472265135824095 
_cell_length_c                    25.44489138450235 
_cell_angle_alpha                 85.0209823273025 
_cell_angle_beta                  109.38312952430482 
_cell_angle_gamma                 126.57055591554371 
loop_ 
_atom_site_label 
_atom_site_type_symbol 
_atom_site_fract_x 
_atom_site_fract_y 
_atom_site_fract_z 
_atom_site_charge 
O1          O  0.70611549  0.69843985  0.45727723    -0.72000
O2          O  0.74243280  0.65044440  0.58717477    -0.73000
O3          O  0.74755342  0.66071958  0.47735018    -0.61600
O4          O  0.69954394  0.68651859  0.56592762    -0.70000
O5          O  0.63790583  0.62430763  0.53227848    -0.69600
O6          O  0.68515768  0.59897862  0.44451863    -0.60800
O7          O  0.68065346  0.58824817  0.55466965    -0.73300
O8          O  0.64416260  0.63647806  0.42425712    -0.72100
Cu9        Cu  0.72612501  0.67620163  0.52321316     1.04600
Cu10       Cu  0.65991076  0.60985576  0.48773191     1.04300
C11         C  0.66917140  0.67499762  0.42010344     0.94200
C12         C  0.71748053  0.61219968  0.59221702     0.93300
C13         C  0.72316763  0.62543390  0.44604284     0.85500
C14         C  0.66105440  0.65952162  0.56286947     0.91800
N15         N  0.05018208  0.73974524  0.00188761    -0.02500
C16         C  0.01067509  0.72768712  0.99245239     0.00100
C17         C  0.99929550  0.74487532  0.44726729    -0.22800
C18         C  0.03176652  0.76627184  0.42652591    -0.23000
C19         C  0.06207254  0.76201367  0.46027386     0.00000
H20         H  0.96896961  0.73918178  0.42802245     0.13700
H21         H  0.03194735  0.78077271  0.38872190     0.13800
N22         N  0.77509021  0.55308183  0.28699070    -0.02500
C23         C  0.79481781  0.53573517  0.28939068     0.00100
C24         C  0.81099885  0.53158313  0.34440246    -0.22800
C25         C  0.80113335  0.54729881  0.37687599    -0.23000
C26         C  0.78002245  0.56107289  0.34072811     0.00000
H27         H  0.82945370  0.52001355  0.35953234     0.13700
H28         H  0.80934315  0.54949762  0.42212191     0.13800
C29         C  0.84147571  0.52908209  0.10414902     0.04100
C30         C  0.87537610  0.56743131  0.09619745    -0.12100
C31         C  0.88778588  0.57042274  0.05018767     0.01600
C32         C  0.86594066  0.53431114  0.01211567    -0.10600
C33         C  0.83103974  0.49630643  0.01816324     0.04100
C34         C  0.81881932  0.49364154  0.06420929    -0.10000
H35         H  0.89073270  0.59534844  0.12441339     0.09700
H36         H  0.87492952  0.53597724  0.97610526     0.07200
H37         H  0.79183446  0.46416493  0.06879787     0.07000
N38         N  0.75409549  0.35429777  0.80384306    -0.01800
C39         C  0.76087411  0.39046784  0.81587108     0.00100
C40         C  0.76524055  0.41225446  0.27050589    -0.22800
C41         C  0.76141504  0.38887317  0.22941783    -0.23000
C42         C  0.75461221  0.35352251  0.25096716     0.00000
H43         H  0.77264252  0.44282127  0.26860678     0.13700
H44         H  0.76383609  0.39699199  0.18853439     0.13800
O45         O  0.75720421  0.23548732  0.98848776    -0.72000
O46         O  0.74091637  0.15403700  0.09855589    -0.73000
O47         O  0.73885643  0.15621177  0.98547415    -0.61600
O48         O  0.75878387  0.23413883  0.10148522    -0.70000
O49         O  0.68995028  0.20364899  0.07150997    -0.69600
O50         O  0.67009930  0.12619345  0.95540268    -0.60800
O51         O  0.67220123  0.12395639  0.06886516    -0.73300
O52         O  0.68864092  0.20631709  0.95851541    -0.72100
Cu53       Cu  0.75130054  0.19598311  0.04470749     1.04600
Cu54       Cu  0.67782963  0.16399369  0.01249781     1.04300
C55         C  0.72547654  0.23368501  0.95583929     0.94200
C56         C  0.70424106  0.12597184  0.10108261     0.93300
C57         C  0.70124181  0.12900518  0.95181953     0.85500
C58         C  0.72750531  0.23134818  0.10470591     0.91800
O59         O  0.19073645  0.77158452  0.36082991    -0.72000
O60         O  0.26974527  0.79659642  0.28103711    -0.73000
O61         O  0.27703241  0.80345322  0.39584347    -0.61600
O62         O  0.18311097  0.76399703  0.24596362    -0.70000
O63         O  0.20129752  0.82777174  0.24360624    -0.69600
O64         O  0.29708932  0.86781857  0.39094531    -0.60800
O65         O  0.28682711  0.85993238  0.27536312    -0.73300
O66         O  0.21121767  0.83615712  0.35837029    -0.72100
Cu67       Cu  0.22951052  0.78163367  0.32106054     1.04600
Cu68       Cu  0.24975060  0.85007736  0.31698669     1.04300
C69         C  0.18866491  0.80026654  0.37237431     0.94200
C70         C  0.29037906  0.83219825  0.26502944     0.93300
C71         C  0.30195557  0.84183959  0.41714514     0.85500
C72         C  0.17730314  0.78975341  0.22102533     0.91800
N73         N  0.61647837  0.73554641  0.72291134    -0.02500
C74         C  0.59852089  0.75502303  0.71831293     0.00100
C75         C  0.55801029  0.73059435  0.67797638    -0.22800
C76         C  0.55519137  0.70111614  0.64949137    -0.23000
C77         C  0.59269492  0.70658710  0.67648972     0.00000
H78         H  0.53755069  0.73983355  0.66102593     0.13700
H79         H  0.53131298  0.68220392  0.60949789     0.13800
C80         C  0.62799342  0.89549950  0.11715638     0.04100
C81         C  0.64982219  0.91521533  0.07916116    -0.12100
C82         C  0.63829720  0.93550758  0.03841914     0.01600
C83         C  0.60690850  0.93895653  0.03791592    -0.10600
C84         C  0.58538912  0.92014147  0.07572842     0.04100
C85         C  0.59579722  0.89842593  0.11467419    -0.10000
H86         H  0.67487653  0.91390822  0.07957982     0.09700
H87         H  0.59769351  0.95426953  0.00624454     0.07200
H88         H  0.57740616  0.88260039  0.14183042     0.07000
N89         N  0.43123612  0.89627832  0.13565809    -0.02500
C90         C  0.47353225  0.91913369  0.14757362     0.00100
C91         C  0.49450425  0.92861123  0.20524899    -0.22800
C92         C  0.46409895  0.91074444  0.22961136    -0.23000
C93         C  0.42561260  0.89108178  0.18602575     0.00000
H94         H  0.52802710  0.94426244  0.22719894     0.13700
H95         H  0.46941034  0.91162239  0.27426286     0.13800
N96         N  0.68122038  0.01134608  0.81120505    -0.02500
C97         C  0.68595294  0.01014098  0.26142480     0.00100
C98         C  0.68678621  0.97722060  0.25422339    -0.22800
C99         C  0.68214282  0.95749003  0.30119738    -0.23000
C100        C  0.67896524  0.97919826  0.83581696     0.00000
H101        H  0.69026197  0.96842409  0.21868227     0.13700
H102        H  0.68179972  0.93062813  0.30949236     0.13800
C103        C  0.63389772  0.91581187  0.94540719    -0.20400
C104        C  0.65352071  0.94685913  0.99053552    -0.08400
C105        C  0.68438111  0.98829782  0.98693209     0.30500
C106        C  0.69450403  0.99854385  0.93786144    -0.20400
C107        C  0.67265544  0.96786893  0.89080471    -0.08400
C108        C  0.64318912  0.92609483  0.39589312     0.30500
F109        F  0.62164069  0.89534665  0.35202485    -0.18900
H110        H  0.60995119  0.88367735  0.44770271     0.18800
H111        H  0.71887265  0.03061392  0.93647307     0.18800
F112        F  0.70402404  0.01881863  0.03031899    -0.18900
C113        C  0.56090016  0.95955453  0.09298956    -0.20400
C114        C  0.55110130  0.92178438  0.07497152    -0.08400
C115        C  0.51046226  0.88470818  0.06690980     0.30500
C116        C  0.48197393  0.88492597  0.08327341    -0.20400
C117        C  0.49407737  0.92196328  0.10864592    -0.08400
C118        C  0.53261827  0.95967910  0.11021990     0.30500
F119        F  0.54449438  0.99599806  0.13351365    -0.18900
H120        H  0.59190372  0.98837085  0.09867834     0.18800
H121        H  0.45254027  0.85553877  0.08212150     0.18800
F122        F  0.49993268  0.84784925  0.04828378    -0.18900
C123        C  0.63754057  0.80923742  0.16427551    -0.20400
C124        C  0.62245373  0.79919066  0.20935775    -0.08400
C125        C  0.61889114  0.82676874  0.23174492     0.30500
C126        C  0.62557400  0.86112242  0.20515172    -0.20400
C127        C  0.63422320  0.86754339  0.15447338    -0.08400
C128        C  0.64216700  0.84209304  0.13600727     0.30500
F129        F  0.64876488  0.84484294  0.08660305    -0.18900
H130        H  0.64001428  0.78813358  0.64571414     0.18800
H131        H  0.62057201  0.88070639  0.22184889     0.18800
F132        F  0.60534298  0.81845110  0.27607215    -0.18900
C133        C  0.40239348  0.91107058  0.04366649    -0.20400
C134        C  0.39928412  0.88224344  0.08049061    -0.08400
C135        C  0.36483477  0.84005293  0.06291964     0.30500
C136        C  0.33370649  0.82706565  0.50946050    -0.20400
C137        C  0.33613071  0.85600655  0.47282579    -0.08400
C138        C  0.37104677  0.89829232  0.99049892     0.30500
F139        F  0.37522715  0.92729955  0.95635121    -0.18900
H140        H  0.42894782  0.94368246  0.05668028     0.18800
H141        H  0.30734831  0.79434918  0.49703798     0.18800
F142        F  0.36176739  0.81138485  0.09709286    -0.18900
C143        C  0.36227172  0.88582732  0.17909324    -0.20400
C144        C  0.38521549  0.86975181  0.19538175    -0.08400
C145        C  0.37348210  0.83785593  0.22905029     0.30500
C146        C  0.34063248  0.82383197  0.24868053    -0.20400
C147        C  0.31976875  0.84216753  0.23617544    -0.08400
C148        C  0.32995028  0.87244674  0.19967574     0.30500
F149        F  0.30965832  0.89008633  0.18537148    -0.18900
H150        H  0.37119204  0.91061278  0.15344177     0.18800
H151        H  0.33326784  0.80040224  0.27644634     0.18800
F152        F  0.39513226  0.82163041  0.24501400    -0.18900
C153        C  0.72722793  0.11141621  0.89195107    -0.20400
C154        C  0.69386150  0.10040297  0.90901823    -0.08400
C155        C  0.65432318  0.06122571  0.88674217     0.30500
C156        C  0.64935251  0.03288880  0.85104075    -0.20400
C157        C  0.68343627  0.04325168  0.83670644    -0.08400
C158        C  0.72199428  0.08319100  0.85573539     0.30500
F159        F  0.75553148  0.09348842  0.84304508    -0.18900
H160        H  0.75781515  0.14149224  0.90798376     0.18800
H161        H  0.61962803  0.00194927  0.83693411     0.18800
F162        F  0.62131868  0.04919932  0.90229459    -0.18900
C163        C  0.66422781  0.07477862  0.15985723    -0.20400
C164        C  0.69910921  0.09581100  0.14162902    -0.08400
C165        C  0.72914420  0.08785202  0.16286064     0.30500
C166        C  0.72436263  0.05977956  0.20139261    -0.20400
C167        C  0.69022647  0.03976092  0.22061842    -0.08400
C168        C  0.65999040  0.04727760  0.19937591     0.30500
F169        F  0.62570907  0.02705727  0.21550266    -0.18900
H170        H  0.64041931  0.07992867  0.14395181     0.18800
H171        H  0.74773555  0.05402536  0.21687757     0.18800
F172        F  0.76288084  0.10664427  0.14578776    -0.18900
C173        C  0.70927126  0.28144704  0.19991601    -0.20400
C174        C  0.74887797  0.32038058  0.21939621    -0.08400
C175        C  0.78176014  0.32924108  0.20314491     0.30500
C176        C  0.77498230  0.29957531  0.16753155    -0.20400
C177        C  0.73492494  0.26097096  0.14614937    -0.08400
C178        C  0.70206701  0.25204235  0.16305472     0.30500
F179        F  0.66286879  0.21517471  0.14354884    -0.18900
H180        H  0.68348315  0.27447898  0.21151176     0.18800
H181        H  0.80075210  0.30742975  0.15508358     0.18800
F182        F  0.82029025  0.36693181  0.22109073    -0.18900
C183        C  0.76479826  0.28045772  0.89385077    -0.20400
C184        C  0.73170800  0.26355610  0.91487771    -0.08400
C185        C  0.70549132  0.27620803  0.89726769     0.30500
C186        C  0.71284911  0.30566122  0.86036160    -0.20400
C187        C  0.74585747  0.32248784  0.83951861    -0.08400
C188        C  0.77164363  0.30942081  0.85612944     0.30500
F189        F  0.80440267  0.32589618  0.83765473    -0.18900
H190        H  0.78542573  0.27123091  0.90668472     0.18800
H191        H  0.69291652  0.31568950  0.84811823     0.18800
F192        F  0.67371608  0.26128981  0.91725862    -0.18900
C193        C  0.77178108  0.45510580  0.92830145    -0.20400
C194        C  0.80590276  0.46089502  0.97293764    -0.08400
C195        C  0.82046488  0.43813242  0.96867844     0.30500
C196        C  0.80291263  0.41202185  0.91873624    -0.20400
C197        C  0.77119965  0.40896838  0.87221641    -0.08400
C198        C  0.75483000  0.42974487  0.87793313     0.30500
F199        F  0.72421396  0.42745516  0.83373215    -0.18900
H200        H  0.76031394  0.47256798  0.93106124     0.18800
H201        H  0.81646678  0.39685892  0.91497544     0.18800
F202        F  0.85356844  0.44343650  0.01137216    -0.18900
C203        C  0.78595032  0.50648655  0.14519101    -0.20400
C204        C  0.82875203  0.52709793  0.15274759    -0.08400
C205        C  0.85953363  0.54742567  0.20664834     0.30500
C206        C  0.84786839  0.54898536  0.25110017    -0.20400
C207        C  0.80543660  0.53020607  0.24279767    -0.08400
C208        C  0.77429025  0.50777068  0.18999826     0.30500
F209        F  0.73269410  0.48668996  0.18192871    -0.18900
H210        H  0.76162444  0.49027574  0.10425567     0.18800
H211        H  0.87223530  0.56591393  0.29182000     0.18800
F212        F  0.90096106  0.56595852  0.21634229    -0.18900
C213        C  0.13350520  0.75216772  0.41535199    -0.20400
C214        C  0.15938874  0.79184924  0.40088441    -0.08400
C215        C  0.15538540  0.82266238  0.41146505     0.30500
C216        C  0.12487264  0.81321715  0.43328927    -0.20400
C217        C  0.09836065  0.77335132  0.44597677    -0.08400
C218        C  0.10323802  0.74294090  0.43772551     0.30500
F219        F  0.07669371  0.70349650  0.94729435    -0.18900
H220        H  0.13567987  0.72779295  0.40765320     0.18800
H221        H  0.12120797  0.83683272  0.43906539     0.18800
F222        F  0.17989701  0.86164748  0.39911426    -0.18900
C223        C  0.10237539  0.78995218  0.08740619    -0.20400
C224        C  0.08061957  0.75062240  0.05747624    -0.08400
C225        C  0.08952773  0.72337089  0.08200759     0.30500
C226        C  0.12055683  0.73589498  0.13566151    -0.20400
C227        C  0.14309795  0.77580248  0.16539233    -0.08400
C228        C  0.13320334  0.80255799  0.14065507     0.30500
F229        F  0.15319892  0.84100169  0.16763099    -0.18900
H230        H  0.09543851  0.81107407  0.06889565     0.18800
H231        H  0.12729548  0.71454701  0.15361175     0.18800
F232        F  0.06831384  0.68490503  0.05417246    -0.18900
C233        C  0.98714797  0.68135965  0.06587987    -0.20400
C234        C  0.97880539  0.68916170  0.00982309    -0.08400
C235        C  0.94057900  0.65783937  0.96829626     0.30500
C236        C  0.91180869  0.61998204  0.98237795    -0.20400
C237        C  0.91997846  0.61162296  0.03787690    -0.08400
C238        C  0.95805674  0.64283623  0.07992709     0.30500
F239        F  0.96788354  0.63569182  0.13399009    -0.18900
H240        H  0.01616558  0.70482487  0.09876658     0.18800
H241        H  0.88305333  0.59695085  0.94915856     0.18800
F242        F  0.93147285  0.66267111  0.91308895    -0.18900
C243        C  0.72403103  0.56600996  0.34075334    -0.20400
C244        C  0.76689362  0.58302870  0.35965565    -0.08400
C245        C  0.79619442  0.61779749  0.40202267     0.30500
C246        C  0.78215152  0.63334539  0.42796649    -0.20400
C247        C  0.73871925  0.61408125  0.41224461    -0.08400
C248        C  0.70991173  0.58138974  0.36663157     0.30500
F249        F  0.66785067  0.56318137  0.34831873    -0.18900
H250        H  0.70109848  0.53914069  0.30833677     0.18800
H251        H  0.80498935  0.65893471  0.46230234     0.18800
F252        F  0.83816407  0.63570150  0.41961268    -0.18900
C253        C  0.71728906  0.54399366  0.70538689    -0.20400
C254        C  0.76024777  0.56815186  0.73910128    -0.08400
C255        C  0.78884081  0.60656373  0.72482473     0.30500
C256        C  0.77468159  0.62051414  0.67700512    -0.20400
C257        C  0.73167318  0.59623638  0.64231620    -0.08400
C258        C  0.70296525  0.55767227  0.65717860     0.30500
F259        F  0.66108544  0.53339481  0.62575228    -0.18900
H260        H  0.69500416  0.51421439  0.71615931     0.18800
H261        H  0.79756312  0.65033437  0.66696807     0.18800
F262        F  0.83048221  0.63041657  0.75726862    -0.18900
C263        C  0.66993389  0.70634458  0.63236566    -0.20400
C264        C  0.64316413  0.66934961  0.59444449    -0.08400
C265        C  0.59953168  0.64308821  0.58612955     0.30500
C266        C  0.58329915  0.65450936  0.61439950    -0.20400
C267        C  0.61014631  0.69200023  0.65142788    -0.08400
C268        C  0.65377994  0.71769056  0.66045921     0.30500
F269        F  0.68079836  0.75512997  0.69381015    -0.18900
H270        H  0.70352366  0.72720474  0.63952822     0.18800
H271        H  0.54962645  0.63433569  0.60666231     0.18800
F272        F  0.57226309  0.60701865  0.54961398    -0.18900
C273        C  0.60034711  0.68376035  0.28807779    -0.20400
C274        C  0.62953987  0.72309336  0.27573629    -0.08400
C275        C  0.67146325  0.74796173  0.31340031     0.30500
C276        C  0.68422090  0.73264833  0.36106701    -0.20400
C277        C  0.65527327  0.69231806  0.37174350    -0.08400
C278        C  0.61290316  0.66836925  0.33499267     0.30500
F279        F  0.58341212  0.62973422  0.34370842    -0.18900
H280        H  0.56765249  0.66431637  0.26005390     0.18800
H281        H  0.71697347  0.75199680  0.38889441     0.18800
F282        F  0.70015538  0.78636245  0.30323582    -0.18900
O283        O  0.70611451  0.69843929  0.95727755    -0.72000
O284        O  0.74243146  0.65044364  0.08717489    -0.73000
O285        O  0.74755227  0.66071888  0.97735047    -0.61600
O286        O  0.69954255  0.68651780  0.06592769    -0.70000
O287        O  0.63790457  0.62430669  0.03227871    -0.69600
O288        O  0.68515648  0.59897804  0.94451862    -0.60800
O289        O  0.68065227  0.58824731  0.05466954    -0.73300
O290        O  0.64416145  0.63647765  0.92425726    -0.72100
Cu291      Cu  0.72612379  0.67620095  0.02321338     1.04600
Cu292      Cu  0.65990957  0.60985509  0.98773196     1.04300
C293        C  0.66917047  0.67499722  0.92010364     0.94200
C294        C  0.71747931  0.61219884  0.09221697     0.93300
C295        C  0.72316648  0.62543323  0.94604300     0.85500
C296        C  0.66105306  0.65952068  0.06286967     0.91800
N297        N  0.05018268  0.73974621  0.50188686    -0.02500
C298        C  0.01067552  0.72768757  0.49245173     0.00100
C299        C  0.99929547  0.74487515  0.94726802    -0.22800
C300        C  0.03176646  0.76627116  0.92652660    -0.23000
C301        C  0.06207210  0.76201250  0.96027451     0.00000
H302        H  0.96896987  0.73918218  0.92802335     0.13700
H303        H  0.03194759  0.78077225  0.88872273     0.13800
N304        N  0.77509034  0.55308226  0.78699094    -0.02500
C305        C  0.79481834  0.53573601  0.78939107     0.00100
C306        C  0.81099880  0.53158339  0.84440275    -0.22800
C307        C  0.80113241  0.54729819  0.87687605    -0.23000
C308        C  0.78002164  0.56107239  0.84072819     0.00000
H309        H  0.82945374  0.52001392  0.85953273     0.13700
H310        H  0.80934168  0.54949649  0.92212189     0.13800
C311        C  0.84147699  0.52908322  0.60414999     0.04100
C312        C  0.87537769  0.56743223  0.59619846    -0.12100
C313        C  0.88778735  0.57042325  0.55018863     0.01600
C314        C  0.86594195  0.53431146  0.51211695    -0.10600
C315        C  0.83104081  0.49630699  0.51816459     0.04100
C316        C  0.81882038  0.49364255  0.56421047    -0.10000
H317        H  0.89073444  0.59534941  0.62441424     0.09700
H318        H  0.87493077  0.53597722  0.47610659     0.07200
H319        H  0.79183526  0.46416611  0.56879905     0.07000
N320        N  0.75409496  0.35429750  0.30384408    -0.01800
C321        C  0.76087371  0.39046761  0.31587242     0.00100
C322        C  0.76524177  0.41225498  0.77050489    -0.22800
C323        C  0.76141689  0.38887385  0.72941730    -0.23000
C324        C  0.75461359  0.35352302  0.75096664     0.00000
H325        H  0.77264397  0.44282186  0.76860580     0.13700
H326        H  0.76383863  0.39699287  0.68853426     0.13800
O327        O  0.75720469  0.23548703  0.48848824    -0.72000
O328        O  0.74091718  0.15403655  0.59855602    -0.73000
O329        O  0.73885672  0.15621147  0.48547415    -0.61600
O330        O  0.75878488  0.23413854  0.60148574    -0.70000
O331        O  0.68995132  0.20364867  0.57151120    -0.69600
O332        O  0.67009963  0.12619322  0.45540342    -0.60800
O333        O  0.67220212  0.12395618  0.56886596    -0.73300
O334        O  0.68864141  0.20631678  0.45851635    -0.72100
Cu335      Cu  0.75130119  0.19598276  0.54470776     1.04600
Cu336      Cu  0.67783032  0.16399343  0.51249876     1.04300
C337        C  0.72547695  0.23368473  0.45584007     0.94200
C338        C  0.70424194  0.12597151  0.60108304     0.93300
C339        C  0.70124199  0.12900490  0.45181984     0.85500
C340        C  0.72750645  0.23134793  0.60470678     0.91800
O341        O  0.19073584  0.77158367  0.86083009    -0.72000
O342        O  0.26974448  0.79659575  0.78103683    -0.73000
O343        O  0.27703170  0.80345231  0.89584344    -0.61600
O344        O  0.18311025  0.76399668  0.74596356    -0.70000
O345        O  0.20129697  0.82777145  0.74360654    -0.69600
O346        O  0.29708874  0.86781772  0.89094548    -0.60800
O347        O  0.28682644  0.85993178  0.77536322    -0.73300
O348        O  0.21121710  0.83615629  0.85837079    -0.72100
Cu349      Cu  0.22950981  0.78163298  0.82106047     1.04600
Cu350      Cu  0.24975001  0.85007673  0.81698699     1.04300
C351        C  0.18866443  0.80026570  0.87237485     0.94200
C352        C  0.29037828  0.83219762  0.76502927     0.93300
C353        C  0.30195499  0.84183869  0.91714510     0.85500
C354        C  0.17730259  0.78975319  0.72102536     0.91800
N355        N  0.61647741  0.73554580  0.22291144    -0.02500
C356        C  0.59852037  0.75502282  0.21831327     0.00100
C357        C  0.55800985  0.73059459  0.17797644    -0.22800
C358        C  0.55519055  0.70111613  0.14949131    -0.23000
C359        C  0.59269380  0.70658654  0.17648976     0.00000
H360        H  0.53755065  0.73983424  0.16102603     0.13700
H361        H  0.53131213  0.68220411  0.10949773     0.13800
C362        C  0.62799306  0.89549958  0.61715588     0.04100
C363        C  0.64982144  0.91521520  0.57916021    -0.12100
C364        C  0.63829595  0.93550697  0.53841792     0.01600
C365        C  0.60690722  0.93895582  0.53791494    -0.10600
C366        C  0.58538833  0.92014111  0.57572804     0.04100
C367        C  0.59579683  0.89842588  0.61467399    -0.10000
H368        H  0.67487581  0.91390820  0.57957871     0.09700
H369        H  0.59769191  0.95426856  0.50624345     0.07200
H370        H  0.57740610  0.88260051  0.64183059     0.07000
N371        N  0.43123600  0.89627878  0.63565889    -0.02500
C372        C  0.47353214  0.91913407  0.64757450     0.00100
C373        C  0.49450408  0.92861162  0.70524988    -0.22800
C374        C  0.46409872  0.91074490  0.72961216    -0.23000
C375        C  0.42561239  0.89108225  0.68602648     0.00000
H376        H  0.52802691  0.94426272  0.72719992     0.13700
H377        H  0.46941009  0.91162282  0.77426366     0.13800
N378        N  0.68121924  0.01134557  0.31120417    -0.02500
C379        C  0.68595435  0.01014140  0.76142592     0.00100
C380        C  0.68678811  0.97722128  0.75422509    -0.22800
C381        C  0.68214471  0.95749090  0.80119920    -0.23000
C382        C  0.67896381  0.97919750  0.33581565     0.00000
H383        H  0.69026414  0.96842478  0.71868424     0.13700
H384        H  0.68180183  0.93062915  0.80949455     0.13800
C385        C  0.63389601  0.91581111  0.44540572    -0.20400
C386        C  0.65351924  0.94685837  0.49053413    -0.08400
C387        C  0.68438007  0.98829696  0.48693097     0.30500
C388        C  0.69450302  0.99854293  0.43786035    -0.20400
C389        C  0.67265417  0.96786809  0.39080348    -0.08400
C390        C  0.64319069  0.92609565  0.89589451     0.30500
F391        F  0.62164237  0.89534748  0.85202626    -0.18900
H392        H  0.60995314  0.88367807  0.94770426     0.18800
H393        H  0.71887192  0.03061297  0.43647210     0.18800
F394        F  0.70402352  0.01881770  0.53031823    -0.18900
C395        C  0.56089956  0.95955433  0.59298931    -0.20400
C396        C  0.55110063  0.92178407  0.57497165    -0.08400
C397        C  0.51046178  0.88470787  0.56691092     0.30500
C398        C  0.48197367  0.88492587  0.58327477    -0.20400
C399        C  0.49407719  0.92196335  0.60864688    -0.08400
C400        C  0.53261799  0.95967911  0.61022026     0.30500
F401        F  0.54449425  0.99599824  0.63351365    -0.18900
H402        H  0.59190299  0.98837065  0.59867738     0.18800
H403        H  0.45254009  0.85553873  0.58212332     0.18800
F404        F  0.49993223  0.84784880  0.54828550    -0.18900
C405        C  0.63754017  0.80923744  0.66427429    -0.20400
C406        C  0.62245380  0.79919080  0.70935695    -0.08400
C407        C  0.61889143  0.82676896  0.73174450     0.30500
C408        C  0.62557431  0.86112273  0.70515146    -0.20400
C409        C  0.63422308  0.86754357  0.65447280    -0.08400
C410        C  0.64216642  0.84209299  0.63600610     0.30500
F411        F  0.64876353  0.84484254  0.58660137    -0.18900
H412        H  0.64001495  0.78813365  0.14571575     0.18800
H413        H  0.62057263  0.88070686  0.72184898     0.18800
F414        F  0.60534363  0.81845142  0.77607207    -0.18900
C415        C  0.40239317  0.91107142  0.54366777    -0.20400
C416        C  0.39928409  0.88224406  0.58049138    -0.08400
C417        C  0.36483515  0.84005345  0.56291975     0.30500
C418        C  0.33370590  0.82706497  0.00946058    -0.20400
C419        C  0.33613037  0.85600566  0.97282543    -0.08400
C420        C  0.37104667  0.89829333  0.49050004     0.30500
F421        F  0.37522684  0.92730084  0.45635292    -0.18900
H422        H  0.42894726  0.94368340  0.55668208     0.18800
H423        H  0.30734737  0.79434859  0.99703854     0.18800
F424        F  0.36176796  0.81138517  0.59709253    -0.18900
C425        C  0.36227097  0.88582703  0.67909327    -0.20400
C426        C  0.38521513  0.86975193  0.69538223    -0.08400
C427        C  0.37348180  0.83785600  0.72905066     0.30500
C428        C  0.34063197  0.82383170  0.74868062    -0.20400
C429        C  0.31976794  0.84216697  0.73617520    -0.08400
C430        C  0.32994928  0.87244608  0.69967540     0.30500
F431        F  0.30965690  0.89008526  0.68537072    -0.18900
H432        H  0.37119119  0.91061245  0.65344175     0.18800
H433        H  0.33326739  0.80040202  0.77644643     0.18800
F434        F  0.39513221  0.82163073  0.74501451    -0.18900
C435        C  0.72722745  0.11141582  0.39195044    -0.20400
C436        C  0.69386133  0.10040262  0.40901834    -0.08400
C437        C  0.65432298  0.06122531  0.38674283     0.30500
C438        C  0.64935192  0.03288839  0.35104093    -0.20400
C439        C  0.68343542  0.04325122  0.33670597    -0.08400
C440        C  0.72199345  0.08319051  0.35573450     0.30500
F441        F  0.75553033  0.09348776  0.34304346    -0.18900
H442        H  0.75781470  0.14149187  0.40798283     0.18800
H443        H  0.61962744  0.00194890  0.33693452     0.18800
F444        F  0.62131884  0.04919888  0.40229619    -0.18900
C445        C  0.66422853  0.07477806  0.65985727    -0.20400
C446        C  0.69911016  0.09581073  0.64162949    -0.08400
C447        C  0.72914533  0.08785201  0.66286144     0.30500
C448        C  0.72436389  0.05977972  0.70139359    -0.20400
C449        C  0.69022765  0.03976099  0.72061918    -0.08400
C450        C  0.65999123  0.04727714  0.69937606     0.30500
F451        F  0.62570963  0.02705635  0.71550226    -0.18900
H452        H  0.64041982  0.07992775  0.64395146     0.18800
H453        H  0.74773695  0.05402574  0.71687877     0.18800
F454        F  0.76288193  0.10664419  0.64578856    -0.18900
C455        C  0.70927314  0.28144701  0.69991752    -0.20400
C456        C  0.74887949  0.32038101  0.71939609    -0.08400
C457        C  0.78176134  0.32924167  0.70314385     0.30500
C458        C  0.77498349  0.29957568  0.66753089    -0.20400
C459        C  0.73492636  0.26097092  0.64615010    -0.08400
C460        C  0.70206883  0.25204209  0.66305660     0.30500
F461        F  0.66287084  0.21517408  0.64355191    -0.18900
H462        H  0.68348529  0.27447878  0.71151406     0.18800
H463        H  0.80075299  0.30743025  0.65508206     0.18800
F464        F  0.82029110  0.36693282  0.72108825    -0.18900
C465        C  0.76479822  0.28045748  0.39385121    -0.20400
C466        C  0.73170824  0.26355588  0.41487866    -0.08400
C467        C  0.70549152  0.27620776  0.39726918     0.30500
C468        C  0.71284901  0.30566093  0.36036306    -0.20400
C469        C  0.74585713  0.32248754  0.33951956    -0.08400
C470        C  0.77164330  0.30942052  0.35612986     0.30500
F471        F  0.80440210  0.32589590  0.33765467    -0.18900
H472        H  0.78542568  0.27123064  0.40668469     0.18800
H473        H  0.69291646  0.31568921  0.34812011     0.18800
F474        F  0.67371652  0.26128947  0.41726063    -0.18900
C475        C  0.77178188  0.45510640  0.42830306    -0.20400
C476        C  0.80590353  0.46089547  0.47293908    -0.08400
C477        C  0.82046520  0.43813244  0.46867984     0.30500
C478        C  0.80291257  0.41202162  0.41873768    -0.20400
C479        C  0.77119960  0.40896826  0.37221795    -0.08400
C480        C  0.75483035  0.42974512  0.37793487     0.30500
F481        F  0.72421438  0.42745566  0.33373408    -0.18900
H482        H  0.76031509  0.47256889  0.43106280     0.18800
H483        H  0.81646642  0.39685837  0.41497686     0.18800
F484        F  0.85356851  0.44343610  0.51137361    -0.18900
C485        C  0.78595147  0.50648862  0.64519116    -0.20400
C486        C  0.82875315  0.52709939  0.65274827    -0.08400
C487        C  0.85953449  0.54742638  0.70664933     0.30500
C488        C  0.84786908  0.54898583  0.75110113    -0.20400
C489        C  0.80543735  0.53020712  0.74279815    -0.08400
C490        C  0.77429123  0.50777257  0.68999832     0.30500
F491        F  0.73269510  0.48669253  0.68192822    -0.18900
H492        H  0.76162578  0.49027842  0.60425555     0.18800
H493        H  0.87223580  0.56591378  0.79182126     0.18800
F494        F  0.90096182  0.56595866  0.71634364    -0.18900
C495        C  0.13350538  0.75216702  0.91535360    -0.20400
C496        C  0.15938856  0.79184845  0.90088548    -0.08400
C497        C  0.15538509  0.82266149  0.91146609     0.30500
C498        C  0.12487241  0.81321622  0.93329053    -0.20400
C499        C  0.09836052  0.77335036  0.94597807    -0.08400
C500        C  0.10323819  0.74294011  0.93772717     0.30500
F501        F  0.07669341  0.70349729  0.44729259    -0.18900
H502        H  0.13568020  0.72779234  0.90765500     0.18800
H503        H  0.12120764  0.83683170  0.93906656     0.18800
F504        F  0.17989644  0.86164659  0.89911508    -0.18900
C505        C  0.10237567  0.78995267  0.58740588    -0.20400
C506        C  0.08062015  0.75062315  0.55747543    -0.08400
C507        C  0.08952825  0.72337152  0.58200651     0.30500
C508        C  0.12055697  0.73589528  0.63566072    -0.20400
C509        C  0.14309771  0.77580250  0.66539208    -0.08400
C510        C  0.13320322  0.80255812  0.64065503     0.30500
F511        F  0.15319859  0.84100160  0.66763145    -0.18900
H512        H  0.09543881  0.81107464  0.56889560     0.18800
H513        H  0.12729564  0.71454729  0.65361082     0.18800
F514        F  0.06831466  0.68490586  0.55417092    -0.18900
C515        C  0.98714901  0.68136032  0.56587965    -0.20400
C516        C  0.97880622  0.68916202  0.50982271    -0.08400
C517        C  0.94058007  0.65783930  0.46829605     0.30500
C518        C  0.91180995  0.61998200  0.48237812    -0.20400
C519        C  0.91997987  0.61162332  0.53787733    -0.08400
C520        C  0.95805806  0.64283692  0.57992725     0.30500
F521        F  0.96788500  0.63569303  0.63399052    -0.18900
H522        H  0.01616646  0.70482583  0.59876617     0.18800
H523        H  0.88305467  0.59695058  0.44915887     0.18800
F524        F  0.93147399  0.66267070  0.41308861    -0.18900
C525        C  0.72402994  0.56600883  0.84075398    -0.20400
C526        C  0.76689260  0.58302797  0.85965580    -0.08400
C527        C  0.79619336  0.61779693  0.90202256     0.30500
C528        C  0.78215041  0.63334483  0.92796637    -0.20400
C529        C  0.73871811  0.61408045  0.91224482    -0.08400
C530        C  0.70991058  0.58138858  0.86663219     0.30500
F531        F  0.66784947  0.56317989  0.84831958    -0.18900
H532        H  0.70109743  0.53913932  0.80833779     0.18800
H533        H  0.80498824  0.65893435  0.96230187     0.18800
F534        F  0.83816305  0.63570117  0.91961233    -0.18900
C535        C  0.71728876  0.54399229  0.20538582    -0.20400
C536        C  0.76024734  0.56815112  0.23910085    -0.08400
C537        C  0.78883996  0.60656355  0.22482505     0.30500
C538        C  0.77468048  0.62051393  0.17700561    -0.20400
C539        C  0.73167222  0.59623558  0.14231605    -0.08400
C540        C  0.70296470  0.55767085  0.15717765     0.30500
F541        F  0.66108506  0.53339270  0.12575057    -0.18900
H542        H  0.69500414  0.51421266  0.21615775     0.18800
H543        H  0.79756174  0.65033469  0.16696923     0.18800
F544        F  0.83048116  0.63041708  0.25726980    -0.18900
C545        C  0.66993264  0.70634311  0.13236675    -0.20400
C546        C  0.64316273  0.66934852  0.09444478    -0.08400
C547        C  0.59953015  0.64308751  0.08612907     0.30500
C548        C  0.58329765  0.65450876  0.11439895    -0.20400
C549        C  0.61014495  0.69199937  0.15142792    -0.08400
C550        C  0.65377870  0.71768920  0.16046012     0.30500
F551        F  0.68079737  0.75512817  0.19381217    -0.18900
H552        H  0.70352251  0.72720286  0.13953007     0.18800
H553        H  0.54962486  0.63433540  0.10666123     0.18800
F554        F  0.57226146  0.60701829  0.04961278    -0.18900
C555        C  0.60034712  0.68376105  0.78807792    -0.20400
C556        C  0.62954038  0.72309376  0.77573623    -0.08400
C557        C  0.67146384  0.74796158  0.81340011     0.30500
C558        C  0.68422098  0.73264792  0.86106687    -0.20400
C559        C  0.65527280  0.69231793  0.87174360    -0.08400
C560        C  0.61290267  0.66836968  0.83499286     0.30500
F561        F  0.58341119  0.62973497  0.84370885    -0.18900
H562        H  0.56765244  0.66431745  0.76005403     0.18800
H563        H  0.71697361  0.75199595  0.88889418     0.18800
F564        F  0.70015644  0.78636201  0.80323545    -0.18900
loop_ 
_geom_bond_atom_site_label_1 
_geom_bond_atom_site_label_2 
_geom_bond_distance 
_geom_bond_site_symmetry_2 
_ccdc_geom_bond_type 
O1           Cu9   2.009       .  S
O1           C11   1.277       .  A
O2           Cu9   2.005       .  S
O2           C12   1.278       .  A
O3           Cu9   2.015       .  S
O3           C13   1.279       .  A
O4           Cu9   2.010       .  S
O4           C14   1.281       .  A
O5          Cu10   1.984       .  S
O5           C14   1.273       .  A
O6          Cu10   1.985       .  S
O6           C13   1.275       .  A
O7          Cu10   2.022       .  S
O7           C12   1.280       .  A
O8          Cu10   2.011       .  S
O8           C11   1.280       .  A
Cu9         Cu10   2.370       .  S
C11         C277   1.486       .  S
C12         C257   1.486       .  S
C13         C247   1.475       .  S
C14         C264   1.477       .  S
N15          C16   1.357   1_554  A
N15         C301   1.353   1_554  A
N15         C224   1.437       .  S
C16         C234   1.485   1_456  S
C16         C299   1.388   1_455  A
C17          C18   1.371   1_655  A
C17         C298   1.388   1_655  A
C17          H20   1.082       .  S
C18          C19   1.378       .  A
C18          H21   1.082       .  S
C19         C217   1.474       .  S
C19         N297   1.353       .  A
N22          C26   1.351       .  A
N22          C23   1.355       .  A
N22         C536   1.437       .  S
C23         C207   1.473       .  S
C23          C24   1.383       .  A
C24          C25   1.375       .  A
C24          H27   1.082       .  S
C25          C26   1.379       .  A
C25          H28   1.082       .  S
C26         C244   1.470       .  S
C29         C204   1.480       .  S
C29          C30   1.407       .  A
C29          C34   1.407       .  A
C30          C31   1.401       .  A
C30          H35   1.083       .  S
C31         C237   1.487       .  S
C31          C32   1.405       .  A
C32          C33   1.400       .  A
C32          H36   1.084   1_554  S
C33         C194   1.473   1_554  S
C33          C34   1.400       .  A
C34          H37   1.083       .  S
N38          C39   1.357       .  A
N38         C324   1.356       .  A
N38         C187   1.441       .  S
C39         C197   1.480       .  S
C39         C322   1.384       .  A
C40          C41   1.376       .  A
C40         C321   1.384       .  A
C40          H43   1.082       .  S
C41          C42   1.382       .  A
C41          H44   1.082       .  S
C42         C174   1.475       .  S
C42         N320   1.356       .  A
O45         Cu53   2.008   1_556  S
O45          C55   1.277       .  A
O46         Cu53   2.015       .  S
O46          C56   1.279       .  A
O47         Cu53   2.008   1_556  S
O47          C57   1.278       .  A
O48         Cu53   2.019       .  S
O48          C58   1.280       .  A
O49         Cu54   2.007       .  S
O49          C58   1.277       .  A
O50         Cu54   2.009   1_556  S
O50          C57   1.278       .  A
O51         Cu54   2.026       .  S
O51          C56   1.280       .  A
O52         Cu54   2.026   1_556  S
O52          C55   1.281       .  A
Cu53        Cu54   2.370       .  S
C55         C184   1.484       .  S
C56         C164   1.489       .  S
C57         C154   1.480       .  S
C58         C177   1.484       .  S
O59         Cu67   2.019       .  S
O59          C69   1.280       .  A
O60         Cu67   2.019       .  S
O60          C70   1.280       .  A
O61         Cu67   2.014       .  S
O61          C71   1.279       .  A
O62         Cu67   2.016       .  S
O62          C72   1.278       .  A
O63         Cu68   2.006       .  S
O63          C72   1.279       .  A
O64         Cu68   2.015       .  S
O64          C71   1.279       .  A
O65         Cu68   1.997       .  S
O65          C70   1.276       .  A
O66         Cu68   1.997       .  S
O66          C69   1.276       .  A
Cu67        Cu68   2.368       .  S
C69         C214   1.485       .  S
C70         C147   1.477       .  S
C71         C137   1.486       .  S
C72         C227   1.486       .  S
N73          C77   1.352       .  A
N73          C74   1.356       .  A
N73         C556   1.444       .  S
C74         C406   1.483       .  S
C74          C75   1.392       .  A
C75          C76   1.374       .  A
C75          H78   1.083       .  S
C76          C77   1.376       .  A
C76          H79   1.082       .  S
C77         C267   1.478       .  S
C80         C127   1.501       .  S
C80          C81   1.412       .  A
C80          C85   1.407       .  A
C81          C82   1.406       .  A
C81          H86   1.081       .  S
C82         C104   1.475   1_554  S
C82          C83   1.402       .  A
C83          C84   1.397       .  A
C83          H87   1.084       .  S
C84         C114   1.475       .  S
C84          C85   1.402       .  A
C85          H88   1.083       .  S
N89          C93   1.356       .  A
N89          C90   1.355       .  A
N89         C134   1.440       .  S
C90         C117   1.473       .  S
C90          C91   1.383       .  A
C91          C92   1.373       .  A
C91          H94   1.083       .  S
C92          C93   1.381       .  A
C92          H95   1.082       .  S
C93         C144   1.472       .  S
N96         C100   1.358   1_545  A
N96         C379   1.355       .  A
N96         C157   1.435       .  S
C97         C167   1.483       .  S
C97         N378   1.355       .  A
C97          C98   1.383   1_545  A
C98          C99   1.381       .  A
C98         H101   1.082       .  S
C99         C382   1.385       .  A
C99         H102   1.082       .  S
C100        C107   1.493       .  S
C100        C381   1.385       .  A
C103        C104   1.402       .  A
C103        C390   1.398       .  A
C103        H392   1.083       .  S
C104        C105   1.401       .  A
C105        C106   1.401       .  A
C105        F112   1.358   1_566  S
C106        C107   1.410       .  A
C106        H111   1.080   1_565  S
C107        C390   1.408       .  A
C108        C385   1.398       .  A
C108        C389   1.408       .  A
C108        F109   1.357       .  S
H110        C385   1.083       .  S
C113        C114   1.401       .  A
C113        C118   1.399       .  A
C113        H120   1.082       .  S
C114        C115   1.406       .  A
C115        C116   1.396       .  A
C115        F122   1.358       .  S
C116        C117   1.402       .  A
C116        H121   1.083       .  S
C117        C118   1.405       .  A
C118        F119   1.357       .  S
C123        C124   1.406       .  A
C123        C128   1.394       .  A
C123        H412   1.082       .  S
C124        C356   1.483       .  S
C124        C125   1.400       .  A
C125        C126   1.403       .  A
C125        F132   1.357       .  S
C126        C127   1.415       .  A
C126        H131   1.081       .  S
C127        C128   1.411       .  A
C128        F129   1.356       .  S
H130        C405   1.082       .  S
C133        C134   1.402       .  A
C133        C138   1.400   1_554  A
C133        H140   1.083       .  S
C134        C135   1.403       .  A
C135        C418   1.400       .  A
C135        F142   1.356       .  S
C136        C137   1.408       .  A
C136        C417   1.400       .  A
C136        H141   1.083       .  S
C137        C420   1.410       .  A
C138        C419   1.410       .  A
C138        F139   1.357       .  S
C143        C144   1.400       .  A
C143        C148   1.399       .  A
C143        H150   1.083       .  S
C144        C145   1.405       .  A
C145        C146   1.397       .  A
C145        F152   1.358       .  S
C146        C147   1.403       .  A
C146        H151   1.083       .  S
C147        C148   1.410       .  A
C148        F149   1.357       .  S
C153        C154   1.406       .  A
C153        C158   1.397       .  A
C153        H160   1.083       .  S
C154        C155   1.409       .  A
C155        C156   1.398       .  A
C155        F162   1.357       .  S
C156        C157   1.401       .  A
C156        H161   1.083       .  S
C157        C158   1.402       .  A
C158        F159   1.357       .  S
C163        C164   1.408       .  A
C163        C168   1.404       .  A
C163        H170   1.083       .  S
C164        C165   1.410       .  A
C165        C166   1.399       .  A
C165        F172   1.357       .  S
C166        C167   1.401       .  A
C166        H171   1.083       .  S
C167        C168   1.405       .  A
C168        F169   1.357       .  S
C173        C174   1.400       .  A
C173        C178   1.401       .  A
C173        H180   1.083       .  S
C174        C175   1.404       .  A
C175        C176   1.398       .  A
C175        F182   1.358       .  S
C176        C177   1.405       .  A
C176        H181   1.083       .  S
C177        C178   1.412       .  A
C178        F179   1.357       .  S
C183        C184   1.408       .  A
C183        C188   1.402       .  A
C183        H190   1.083       .  S
C184        C185   1.407       .  A
C185        C186   1.399       .  A
C185        F192   1.357       .  S
C186        C187   1.403       .  A
C186        H191   1.083       .  S
C187        C188   1.404       .  A
C188        F189   1.357       .  S
C193        C194   1.402       .  A
C193        C198   1.398       .  A
C193        H200   1.083       .  S
C194        C195   1.403       .  A
C195        C196   1.399       .  A
C195        F202   1.357   1_556  S
C196        C197   1.405       .  A
C196        H201   1.083       .  S
C197        C198   1.406       .  A
C198        F199   1.358       .  S
C203        C204   1.406       .  A
C203        C208   1.398       .  A
C203        H210   1.083       .  S
C204        C205   1.407       .  A
C205        C206   1.393       .  A
C205        F212   1.358       .  S
C206        C207   1.401       .  A
C206        H211   1.084       .  S
C207        C208   1.404       .  A
C208        F209   1.356       .  S
C213        C214   1.407       .  A
C213        C218   1.399       .  A
C213        H220   1.083       .  S
C214        C215   1.412       .  A
C215        C216   1.396       .  A
C215        F222   1.357       .  S
C216        C217   1.398       .  A
C216        H221   1.083       .  S
C217        C218   1.405       .  A
C218        F501   1.357       .  S
F219        C500   1.357       .  S
C223        C224   1.401       .  A
C223        C228   1.393       .  A
C223        H230   1.083       .  S
C224        C225   1.401       .  A
C225        C226   1.404       .  A
C225        F232   1.356       .  S
C226        C227   1.411       .  A
C226        H231   1.083       .  S
C227        C228   1.409       .  A
C228        F229   1.358       .  S
C233        C234   1.407       .  A
C233        C238   1.405       .  A
C233        H240   1.081   1_655  S
C234        C235   1.408   1_554  A
C235        C236   1.386       .  A
C235        F242   1.357       .  S
C236        C237   1.400   1_556  A
C236        H241   1.077       .  S
C237        C238   1.411       .  A
C238        F239   1.357       .  S
C243        C244   1.397       .  A
C243        C248   1.394       .  A
C243        H250   1.082       .  S
C244        C245   1.406       .  A
C245        C246   1.397       .  A
C245        F252   1.358       .  S
C246        C247   1.404       .  A
C246        H251   1.083       .  S
C247        C248   1.410       .  A
C248        F249   1.358       .  S
C253        C254   1.401       .  A
C253        C258   1.401       .  A
C253        H260   1.083       .  S
C254        N304   1.437       .  S
C254        C255   1.399       .  A
C255        C256   1.398       .  A
C255        F262   1.357       .  S
C256        C257   1.409       .  A
C256        H261   1.083       .  S
C257        C258   1.411       .  A
C258        F259   1.357       .  S
C263        C264   1.401       .  A
C263        C268   1.390       .  A
C263        H270   1.083       .  S
C264        C265   1.412       .  A
C265        C266   1.398       .  A
C265        F272   1.358       .  S
C266        C267   1.402       .  A
C266        H271   1.083       .  S
C267        C268   1.408       .  A
C268        F269   1.356       .  S
C273        C274   1.407       .  A
C273        C278   1.391       .  A
C273        H280   1.083       .  S
C274        N355   1.444       .  S
C274        C275   1.403       .  A
C275        C276   1.406       .  A
C275        F282   1.356       .  S
C276        C277   1.412       .  A
C276        H281   1.083       .  S
C277        C278   1.406       .  A
C278        F279   1.357       .  S
O283       Cu291   2.009   1_556  S
O283        C293   1.277       .  A
O284       Cu291   2.005       .  S
O284        C294   1.278       .  A
O285       Cu291   2.015   1_556  S
O285        C295   1.279       .  A
O286       Cu291   2.010       .  S
O286        C296   1.281       .  A
O287       Cu292   1.984   1_554  S
O287        C296   1.273       .  A
O288       Cu292   1.985       .  S
O288        C295   1.275       .  A
O289       Cu292   2.022   1_554  S
O289        C294   1.280       .  A
O290       Cu292   2.011       .  S
O290        C293   1.280       .  A
Cu291      Cu292   2.370   1_554  S
C293        C559   1.486       .  S
C294        C539   1.486       .  S
C295        C529   1.475       .  S
C296        C546   1.477       .  S
N297        C298   1.357       .  A
N297        C506   1.437       .  S
C298        C516   1.485   1_455  S
C299        C300   1.371   1_655  A
C299        H302   1.082       .  S
C300        C301   1.378       .  A
C300        H303   1.082       .  S
C301        C499   1.474       .  S
N304        C308   1.351       .  A
N304        C305   1.355       .  A
C305        C489   1.473       .  S
C305        C306   1.383       .  A
C306        C307   1.375       .  A
C306        H309   1.082       .  S
C307        C308   1.379       .  A
C307        H310   1.082       .  S
C308        C526   1.470       .  S
C311        C486   1.480       .  S
C311        C312   1.407       .  A
C311        C316   1.407       .  A
C312        C313   1.401       .  A
C312        H317   1.083       .  S
C313        C519   1.487       .  S
C313        C314   1.405       .  A
C314        C315   1.400       .  A
C314        H318   1.084       .  S
C315        C476   1.473       .  S
C315        C316   1.400       .  A
C316        H319   1.083       .  S
N320        C321   1.357       .  A
N320        C469   1.441       .  S
C321        C479   1.480       .  S
C322        C323   1.376       .  A
C322        H325   1.082       .  S
C323        C324   1.382       .  A
C323        H326   1.082       .  S
C324        C456   1.475       .  S
O327       Cu335   2.008       .  S
O327        C337   1.277       .  A
O328       Cu335   2.015       .  S
O328        C338   1.279       .  A
O329       Cu335   2.008       .  S
O329        C339   1.278       .  A
O330       Cu335   2.019       .  S
O330        C340   1.280       .  A
O331       Cu336   2.007       .  S
O331        C340   1.277       .  A
O332       Cu336   2.009       .  S
O332        C339   1.278       .  A
O333       Cu336   2.026       .  S
O333        C338   1.280       .  A
O334       Cu336   2.026       .  S
O334        C337   1.281       .  A
Cu335      Cu336   2.370       .  S
C337        C466   1.484       .  S
C338        C446   1.489       .  S
C339        C436   1.480       .  S
C340        C459   1.484       .  S
O341       Cu349   2.019       .  S
O341        C351   1.280       .  A
O342       Cu349   2.019       .  S
O342        C352   1.280       .  A
O343       Cu349   2.014       .  S
O343        C353   1.279       .  A
O344       Cu349   2.016       .  S
O344        C354   1.278       .  A
O345       Cu350   2.006       .  S
O345        C354   1.279       .  A
O346       Cu350   2.015       .  S
O346        C353   1.279       .  A
O347       Cu350   1.997       .  S
O347        C352   1.276       .  A
O348       Cu350   1.997       .  S
O348        C351   1.276       .  A
Cu349      Cu350   2.368       .  S
C351        C496   1.485       .  S
C352        C429   1.477       .  S
C353        C419   1.486       .  S
C354        C509   1.486       .  S
N355        C359   1.352       .  A
N355        C356   1.356       .  A
C356        C357   1.392       .  A
C357        C358   1.374       .  A
C357        H360   1.083       .  S
C358        C359   1.376       .  A
C358        H361   1.082       .  S
C359        C549   1.478       .  S
C362        C409   1.501       .  S
C362        C363   1.412       .  A
C362        C367   1.407       .  A
C363        C364   1.406       .  A
C363        H368   1.081       .  S
C364        C386   1.475       .  S
C364        C365   1.402       .  A
C365        C366   1.397       .  A
C365        H369   1.084       .  S
C366        C396   1.475       .  S
C366        C367   1.402       .  A
C367        H370   1.083       .  S
N371        C375   1.356       .  A
N371        C372   1.355       .  A
N371        C416   1.440       .  S
C372        C399   1.473       .  S
C372        C373   1.383       .  A
C373        C374   1.373       .  A
C373        H376   1.083       .  S
C374        C375   1.381       .  A
C374        H377   1.082       .  S
C375        C426   1.472       .  S
N378        C382   1.358   1_545  A
N378        C439   1.435       .  S
C379        C449   1.483       .  S
C379        C380   1.383   1_545  A
C380        C381   1.381       .  A
C380        H383   1.082       .  S
C381        H384   1.082       .  S
C382        C389   1.493       .  S
C385        C386   1.402       .  A
C386        C387   1.401       .  A
C387        C388   1.401       .  A
C387        F394   1.358   1_565  S
C388        C389   1.410       .  A
C388        H393   1.080   1_565  S
C390        F391   1.357       .  S
C395        C396   1.401       .  A
C395        C400   1.399       .  A
C395        H402   1.082       .  S
C396        C397   1.406       .  A
C397        C398   1.396       .  A
C397        F404   1.358       .  S
C398        C399   1.402       .  A
C398        H403   1.083       .  S
C399        C400   1.405       .  A
C400        F401   1.357       .  S
C405        C406   1.406       .  A
C405        C410   1.394       .  A
C406        C407   1.400       .  A
C407        C408   1.403       .  A
C407        F414   1.357       .  S
C408        C409   1.415       .  A
C408        H413   1.081       .  S
C409        C410   1.411       .  A
C410        F411   1.356       .  S
C415        C416   1.402       .  A
C415        C420   1.400       .  A
C415        H422   1.083       .  S
C416        C417   1.403       .  A
C417        F424   1.356       .  S
C418        C419   1.408   1_554  A
C418        H423   1.083   1_554  S
C420        F421   1.357       .  S
C425        C426   1.400       .  A
C425        C430   1.399       .  A
C425        H432   1.083       .  S
C426        C427   1.405       .  A
C427        C428   1.397       .  A
C427        F434   1.358       .  S
C428        C429   1.403       .  A
C428        H433   1.083       .  S
C429        C430   1.410       .  A
C430        F431   1.357       .  S
C435        C436   1.406       .  A
C435        C440   1.397       .  A
C435        H442   1.083       .  S
C436        C437   1.409       .  A
C437        C438   1.398       .  A
C437        F444   1.357       .  S
C438        C439   1.401       .  A
C438        H443   1.083       .  S
C439        C440   1.402       .  A
C440        F441   1.357       .  S
C445        C446   1.408       .  A
C445        C450   1.404       .  A
C445        H452   1.083       .  S
C446        C447   1.410       .  A
C447        C448   1.399       .  A
C447        F454   1.357       .  S
C448        C449   1.401       .  A
C448        H453   1.083       .  S
C449        C450   1.405       .  A
C450        F451   1.357       .  S
C455        C456   1.400       .  A
C455        C460   1.401       .  A
C455        H462   1.083       .  S
C456        C457   1.404       .  A
C457        C458   1.398       .  A
C457        F464   1.358       .  S
C458        C459   1.405       .  A
C458        H463   1.083       .  S
C459        C460   1.412       .  A
C460        F461   1.357       .  S
C465        C466   1.408       .  A
C465        C470   1.402       .  A
C465        H472   1.083       .  S
C466        C467   1.407       .  A
C467        C468   1.399       .  A
C467        F474   1.357       .  S
C468        C469   1.403       .  A
C468        H473   1.083       .  S
C469        C470   1.404       .  A
C470        F471   1.357       .  S
C475        C476   1.402       .  A
C475        C480   1.398       .  A
C475        H482   1.083       .  S
C476        C477   1.403       .  A
C477        C478   1.399       .  A
C477        F484   1.357       .  S
C478        C479   1.405       .  A
C478        H483   1.083       .  S
C479        C480   1.406       .  A
C480        F481   1.358       .  S
C485        C486   1.406       .  A
C485        C490   1.398       .  A
C485        H492   1.083       .  S
C486        C487   1.407       .  A
C487        C488   1.393       .  A
C487        F494   1.358       .  S
C488        C489   1.401       .  A
C488        H493   1.084       .  S
C489        C490   1.404       .  A
C490        F491   1.356       .  S
C495        C496   1.407       .  A
C495        C500   1.399       .  A
C495        H502   1.083       .  S
C496        C497   1.412       .  A
C497        C498   1.396       .  A
C497        F504   1.357       .  S
C498        C499   1.398       .  A
C498        H503   1.083       .  S
C499        C500   1.405       .  A
C505        C506   1.401       .  A
C505        C510   1.393       .  A
C505        H512   1.083       .  S
C506        C507   1.401       .  A
C507        C508   1.404       .  A
C507        F514   1.356       .  S
C508        C509   1.411       .  A
C508        H513   1.083       .  S
C509        C510   1.409       .  A
C510        F511   1.358       .  S
C515        C516   1.407       .  A
C515        C520   1.405       .  A
C515        H522   1.081   1_655  S
C516        C517   1.408       .  A
C517        C518   1.386       .  A
C517        F524   1.357       .  S
C518        C519   1.400       .  A
C518        H523   1.077       .  S
C519        C520   1.411       .  A
C520        F521   1.357       .  S
C525        C526   1.397       .  A
C525        C530   1.394       .  A
C525        H532   1.082       .  S
C526        C527   1.406       .  A
C527        C528   1.397       .  A
C527        F534   1.358       .  S
C528        C529   1.404       .  A
C528        H533   1.083       .  S
C529        C530   1.410       .  A
C530        F531   1.358       .  S
C535        C536   1.401       .  A
C535        C540   1.401       .  A
C535        H542   1.083       .  S
C536        C537   1.399       .  A
C537        C538   1.398       .  A
C537        F544   1.357       .  S
C538        C539   1.409       .  A
C538        H543   1.083       .  S
C539        C540   1.411       .  A
C540        F541   1.357       .  S
C545        C546   1.401       .  A
C545        C550   1.390       .  A
C545        H552   1.083       .  S
C546        C547   1.412       .  A
C547        C548   1.398       .  A
C547        F554   1.358       .  S
C548        C549   1.402       .  A
C548        H553   1.083       .  S
C549        C550   1.408       .  A
C550        F551   1.356       .  S
C555        C556   1.407       .  A
C555        C560   1.391       .  A
C555        H562   1.083       .  S
C556        C557   1.403       .  A
C557        C558   1.406       .  A
C557        F564   1.356       .  S
C558        C559   1.412       .  A
C558        H563   1.083       .  S
C559        C560   1.406       .  A
C560        F561   1.357       .  S
