geometry optimzed in LAMMPS
_audit_creation_date              2020-11-30 
_audit_creation_method            'lammps2cif' 
_symmetry_space_group_name_H-M    'P1' 
_symmetry_Int_Tables_number       1 
_symmetry_cell_setting            triclinic 
loop_ 
_symmetry_equiv_pos_as_xyz 
  x,y,z 
_cell_length_a                    47.46357576718354 
_cell_length_b                    47.07551898166043 
_cell_length_c                    47.264926544482094 
_cell_angle_alpha                 89.98095241636254 
_cell_angle_beta                  89.85637601764914 
_cell_angle_gamma                 89.9596362486343 
loop_ 
_atom_site_label 
_atom_site_type_symbol 
_atom_site_fract_x 
_atom_site_fract_y 
_atom_site_fract_z 
_atom_site_charge 
C1          C  0.68506302  0.64855204  0.81472646     0.02980
C2          C  0.66010228  0.65984560  0.80339675    -0.13170
C3          C  0.64763515  0.68409366  0.81524086     0.00480
C4          C  0.65943465  0.69641359  0.83940308    -0.11700
C5          C  0.68479281  0.68595162  0.85055395     0.02970
C6          C  0.69761411  0.66219760  0.83792715    -0.11120
H7          H  0.65081595  0.65033506  0.78473542     0.08570
H8          H  0.64956425  0.71497903  0.84868581     0.06090
H9          H  0.71806437  0.65532372  0.84535136     0.05940
C10         C  0.68270833  0.85565858  0.60760793     0.02980
C11         C  0.65859687  0.84370216  0.62013014    -0.13170
C12         C  0.64748148  0.85492857  0.64528420     0.00480
C13         C  0.65944540  0.87946229  0.65696419    -0.11700
C14         C  0.68311998  0.89192827  0.64432302     0.02970
C15         C  0.69483784  0.87989714  0.61987598    -0.11120
H16         H  0.64926928  0.82474474  0.61113245     0.08570
H17         H  0.65127900  0.88798098  0.67665312     0.06090
H18         H  0.71419565  0.88860873  0.61132263     0.05940
C19         C  0.85408700  0.65067814  0.64606024     0.02980
C20         C  0.84341109  0.66258131  0.62096982    -0.13170
C21         C  0.85672312  0.68595658  0.60807514     0.00480
C22         C  0.88204130  0.69614172  0.61962520    -0.11700
C23         C  0.89255110  0.68486540  0.64488237     0.02970
C24         C  0.87865604  0.66215256  0.65796836    -0.11120
H25         H  0.82419455  0.65418119  0.61196228     0.08570
H26         H  0.89296888  0.71376441  0.60976934     0.06090
H27         H  0.88645858  0.65410501  0.67796175     0.05940
C28         C  0.85573371  0.85500715  0.85282194     0.02980
C29         C  0.87940150  0.84322920  0.83930261    -0.13170
C30         C  0.89131464  0.85615703  0.81526102     0.00480
C31         C  0.87959582  0.88172407  0.80529695    -0.11700
C32         C  0.85561877  0.89353787  0.81821714     0.02970
C33         C  0.84391639  0.88005231  0.84197447    -0.11120
H34         H  0.88805076  0.82342011  0.84707293     0.08570
H35         H  0.88854343  0.89205855  0.78690138     0.06090
H36         H  0.82483777  0.88853958  0.85134723     0.05940
O37         O  0.77442665  0.80586959  0.00878992    -0.74580
O38         O  0.73288268  0.76618194  0.95181354    -0.74610
O39         O  0.73290237  0.76617210  0.00906044    -0.74660
O40         O  0.77431935  0.80581630  0.95170311    -0.74710
O41         O  0.80614169  0.77090000  0.95097210    -0.74640
O42         O  0.76568780  0.73211524  0.00946811    -0.74620
O43         O  0.76484518  0.73141150  0.95219080    -0.74600
O44         O  0.80690024  0.77159428  0.00837743    -0.74660
Ni45       Ni  0.75246061  0.78723481  0.98034754     1.25410
Ni46       Ni  0.78705710  0.75029177  0.98023885     1.25360
C47         C  0.79749571  0.79521865  0.01800159     0.87600
C48         C  0.74187930  0.74214195  0.94283394     0.87530
C49         C  0.74261180  0.74271828  0.01872682     0.87560
C50         C  0.79692341  0.79474439  0.94176889     0.87730
O51         O  0.04810055  0.77144156  0.76773014    -0.74580
O52         O  0.99030971  0.73266062  0.72682461    -0.74610
O53         O  0.04726058  0.73137438  0.72673933    -0.74660
O54         O  0.99104514  0.77306224  0.76778970    -0.74710
O55         O  0.99103780  0.80620576  0.73405897    -0.74640
O56         O  0.04903709  0.76596376  0.69456198    -0.74620
O57         O  0.99196626  0.76595933  0.69319122    -0.74600
O58         O  0.04813553  0.80605546  0.73556197    -0.74660
Ni59       Ni  0.01912091  0.75093345  0.74845987     1.25410
Ni60       Ni  0.02006446  0.78725980  0.71316510     1.25360
C61         C  0.05774537  0.79505283  0.75840797     0.87600
C62         C  0.98188264  0.74280519  0.70319892     0.87530
C63         C  0.05759033  0.74196376  0.70400339     0.87560
C64         C  0.98167194  0.79644705  0.75755779     0.87730
O65         O  0.77169377  0.99116440  0.76735247    -0.74580
O66         O  0.73230897  0.04765643  0.72486162    -0.74610
O67         O  0.73203660  0.99028738  0.72629866    -0.74660
O68         O  0.77227796  0.04875338  0.76567727    -0.74710
O69         O  0.80599604  0.04728442  0.73278704    -0.74640
O70         O  0.76597516  0.98908092  0.69348536    -0.74620
O71         O  0.76609559  0.04666640  0.69189369    -0.74600
O72         O  0.80570005  0.99008793  0.73470063    -0.74660
Ni73       Ni  0.75088652  0.01949872  0.74724164     1.25410
Ni74       Ni  0.78712452  0.01822210  0.71201266     1.25360
C75         C  0.79510864  0.98132832  0.75809144     0.87600
C76         C  0.74275092  0.05645168  0.70148780     0.87530
C77         C  0.74250135  0.98015616  0.70343141     0.87560
C78         C  0.79563108  0.05790152  0.75545232     0.87730
C79         C  0.68448782  0.64716742  0.14477799     0.02980
C80         C  0.69720487  0.66047212  0.12141449    -0.13170
C81         C  0.68549410  0.68522367  0.10981557     0.00480
C82         C  0.66111126  0.69698441  0.12176430    -0.11700
C83         C  0.64848314  0.68432529  0.14548417     0.02970
C84         C  0.65972521  0.65892102  0.15621174    -0.11120
H85         H  0.71692981  0.65246301  0.11301893     0.08570
H86         H  0.65289863  0.71680745  0.11350686     0.06090
H87         H  0.64970191  0.64879585  0.17419802     0.05940
C88         C  0.68337256  0.14518136  0.64292231     0.02980
C89         C  0.69626342  0.15898128  0.62011794    -0.13170
C90         C  0.68483876  0.18415575  0.60929517     0.00480
C91         C  0.66058904  0.19578181  0.62176660    -0.11700
C92         C  0.64767375  0.18241287  0.64509173     0.02970
C93         C  0.65875011  0.15646886  0.65487004    -0.11120
H94         H  0.71562545  0.15051504  0.61127689     0.08570
H95         H  0.65269530  0.21598370  0.61415334     0.06090
H96         H  0.64901225  0.14559483  0.67256359     0.05940
C97         C  0.18436172  0.68231259  0.60766533     0.02980
C98         C  0.16045065  0.69531638  0.61962830    -0.13170
C99         C  0.14860297  0.68503096  0.64494081     0.00480
C100        C  0.16052157  0.66099798  0.65779745    -0.11700
C101        C  0.18380563  0.64730779  0.64566910     0.02970
C102        C  0.19502847  0.65744460  0.62016755    -0.11120
H103        H  0.15168910  0.71410532  0.60979014     0.08570
H104        H  0.15223179  0.65336436  0.67778806     0.06090
H105        H  0.21304406  0.64676142  0.61089904     0.05940
C106        C  0.85610527  0.64793092  0.31595051     0.02980
C107        C  0.84358977  0.66005339  0.34007928    -0.13170
C108        C  0.85503333  0.68446620  0.35262608     0.00480
C109        C  0.87882666  0.69725353  0.34048799    -0.11700
C110        C  0.89147285  0.68546163  0.31643131     0.02970
C111        C  0.88038357  0.66064743  0.30446461    -0.11120
H112        H  0.82424982  0.65120940  0.34852377     0.08570
H113        H  0.88693251  0.71691892  0.34918325     0.06090
H114        H  0.89003639  0.65192730  0.28556126     0.05940
O115        O  0.04778702  0.80569299  0.22434853    -0.74580
O116        O  0.99074634  0.76750649  0.26745434    -0.74610
O117        O  0.04799505  0.76646564  0.26639474    -0.74660
O118        O  0.99094985  0.80662800  0.22539440    -0.74710
O119        O  0.98967643  0.77153594  0.19371938    -0.74640
O120        O  0.04698743  0.73164986  0.23445369    -0.74620
O121        O  0.99012336  0.73242662  0.23566454    -0.74600
O122        O  0.04683807  0.77088071  0.19244606    -0.74660
Ni123      Ni  0.01942415  0.78778645  0.24707752     1.25410
Ni124      Ni  0.01838403  0.75040999  0.21291074     1.25360
C125        C  0.05670429  0.79460951  0.20124459     0.87600
C126        C  0.98106526  0.74375906  0.25855159     0.87530
C127        C  0.05687229  0.74242495  0.25722652     0.87560
C128        C  0.98080138  0.79555547  0.20287498     0.87730
C129        C  0.85482430  0.89096077  0.14455706     0.02980
C130        C  0.84312853  0.87877859  0.12018107    -0.13170
C131        C  0.85617717  0.85551042  0.10691823     0.00480
C132        C  0.88119913  0.84459797  0.11847523    -0.11700
C133        C  0.89235703  0.85560315  0.14367570     0.02970
C134        C  0.87904810  0.87890174  0.15654924    -0.11120
H135        H  0.82332856  0.88690654  0.11220184     0.08570
H136        H  0.89155166  0.82675528  0.10835601     0.06090
H137        H  0.88678241  0.88701592  0.17652243     0.05940
C138        C  0.68231753  0.85476701  0.35314698     0.02980
C139        C  0.65685694  0.84488234  0.34188463    -0.13170
C140        C  0.64650060  0.85561759  0.31619295     0.00480
C141        C  0.66107654  0.87787161  0.30281025    -0.11700
C142        C  0.68568699  0.88912462  0.31479408     0.02970
C143        C  0.69606370  0.87765123  0.34012939    -0.11120
H144        H  0.64561179  0.82798932  0.35261108     0.08570
H145        H  0.65404616  0.88570972  0.28246392     0.06090
H146        H  0.71552654  0.88570736  0.34898976     0.05940
O147        O  0.77417391  0.04729639  0.19427623    -0.74580
O148        O  0.73329130  0.99102110  0.23595917    -0.74610
O149        O  0.73443320  0.04844884  0.23507703    -0.74660
O150        O  0.77313968  0.98957864  0.19504349    -0.74710
O151        O  0.80731881  0.99005696  0.22741362    -0.74640
O152        O  0.76737784  0.04748249  0.26866210    -0.74620
O153        O  0.76744240  0.98995344  0.26834093    -0.74600
O154        O  0.80744581  0.04753884  0.22748986    -0.74660
Ni155      Ni  0.75258739  0.01908104  0.21389352     1.25410
Ni156      Ni  0.78860697  0.01877979  0.24915930     1.25360
C157        C  0.79742245  0.05688422  0.20413115     0.87600
C158        C  0.74371437  0.98118372  0.25893049     0.87530
C159        C  0.74441675  0.05752269  0.25852959     0.87560
C160        C  0.79645061  0.98000162  0.20477301     0.87730
C161        C  0.35603997  0.85314317  0.60914554     0.02980
C162        C  0.38239971  0.84373550  0.61880406    -0.13170
C163        C  0.39507817  0.85616946  0.64253411     0.00480
C164        C  0.38216251  0.87960104  0.65552483    -0.11700
C165        C  0.35594591  0.88966187  0.64598873     0.02970
C166        C  0.34307700  0.87624353  0.62279207    -0.11120
H167        H  0.39271345  0.82595133  0.60855871     0.08570
H168        H  0.39212378  0.88928456  0.67371008     0.06090
H169        H  0.32234379  0.88307285  0.61606170     0.05940
O170        O  0.27368485  0.04843859  0.69271667    -0.74580
O171        O  0.23254788  0.99158274  0.73336992    -0.74610
O172        O  0.23337216  0.04898632  0.73326911    -0.74660
O173        O  0.27304231  0.99088886  0.69266489    -0.74710
O174        O  0.30595585  0.98997071  0.72619720    -0.74640
O175        O  0.26707489  0.04894472  0.76611975    -0.74620
O176        O  0.26579995  0.99125076  0.76664696    -0.74600
O177        O  0.30734692  0.04741935  0.72549271    -0.74660
Ni178      Ni  0.25198041  0.01996670  0.71180891     1.25410
Ni179      Ni  0.28770494  0.01939416  0.74732068     1.25360
C180        C  0.29732028  0.05726875  0.70235602     0.87600
C181        C  0.24243758  0.98204882  0.75670438     0.87530
C182        C  0.24397064  0.05880475  0.75614398     0.87560
C183        C  0.29599938  0.98079809  0.70275807     0.87730
C184        C  0.18249324  0.85712743  0.85413638     0.02980
C185        C  0.15923396  0.84402702  0.84132616    -0.13170
C186        C  0.14817399  0.85447056  0.81574550     0.00480
C187        C  0.16141091  0.87775703  0.80262738    -0.11700
C188        C  0.18459393  0.89117866  0.81529827     0.02970
C189        C  0.19431968  0.88128326  0.84150559    -0.11120
H190        H  0.15020936  0.82523906  0.85098799     0.08570
H191        H  0.15443408  0.88473594  0.78195901     0.06090
H192        H  0.21198200  0.89168540  0.85163111     0.05940
C193        C  0.35587195  0.64625220  0.81595911     0.02980
C194        C  0.37924744  0.65961918  0.80372334    -0.13170
C195        C  0.38908756  0.68565742  0.81421222     0.00480
C196        C  0.37566343  0.69782084  0.83784314    -0.11700
C197        C  0.35245434  0.68438577  0.85073563     0.02970
C198        C  0.34302608  0.65827383  0.83985755    -0.11120
H199        H  0.38928781  0.64996991  0.78548888     0.08570
H200        H  0.38261125  0.71833385  0.84551570     0.06090
H201        H  0.32506645  0.64769124  0.84931718     0.05940
O202        O  0.30543945  0.76649204  0.00910367    -0.74580
O203        O  0.26575162  0.80679654  0.95129287    -0.74610
O204        O  0.26563973  0.80756948  0.00873115    -0.74660
O205        O  0.30561220  0.76565272  0.95194604    -0.74710
O206        O  0.27156879  0.73302270  0.95192502    -0.74640
O207        O  0.23193116  0.77448419  0.00930103    -0.74620
O208        O  0.23158163  0.77425545  0.95224788    -0.74600
O209        O  0.27184822  0.73344286  0.00960618    -0.74660
Ni210      Ni  0.28678451  0.78781954  0.98023140     1.25410
Ni211      Ni  0.25056684  0.75256757  0.98075876     1.25360
C212        C  0.29516438  0.74340306  0.01901088     0.87600
C213        C  0.24213693  0.79723322  0.94233910     0.87530
C214        C  0.24239073  0.79775528  0.01845866     0.87560
C215        C  0.29513009  0.74246679  0.94251090     0.87730
C216        C  0.89131931  0.35414826  0.64570831     0.02980
C217        C  0.87957359  0.37905120  0.65701934    -0.13170
C218        C  0.85535069  0.39094332  0.64496356     0.00480
C219        C  0.84331261  0.37839599  0.62098546    -0.11700
C220        C  0.85502627  0.35362894  0.60945988     0.02970
C221        C  0.87926065  0.34174807  0.62164234    -0.11120
H222        H  0.88830371  0.38818543  0.67613555     0.08570
H223        H  0.82398896  0.38699248  0.61228235     0.06090
H224        H  0.88779133  0.32207772  0.61331670     0.05940
O225        O  0.99179811  0.27405299  0.69305981    -0.74580
O226        O  0.04715355  0.23198224  0.73447882    -0.74610
O227        O  0.99028178  0.23357164  0.73385662    -0.74660
O228        O  0.04882425  0.27245000  0.69380342    -0.74710
O229        O  0.04796465  0.30707714  0.72608388    -0.74640
O230        O  0.99183041  0.26624907  0.76789559    -0.74620
O231        O  0.04882722  0.26656842  0.76674883    -0.74600
O232        O  0.99086561  0.30680105  0.72721881    -0.74660
Ni233      Ni  0.01948349  0.25182585  0.71259164     1.25410
Ni234      Ni  0.01987490  0.28789882  0.74816995     1.25360
C235        C  0.98206072  0.29716763  0.70350863     0.87600
C236        C  0.05720109  0.24250035  0.75730145     0.87530
C237        C  0.98170977  0.24320836  0.75773352     0.87560
C238        C  0.05798643  0.29613316  0.70339157     0.87730
C239        C  0.85252170  0.18587796  0.84876292     0.02980
C240        C  0.87789399  0.19659652  0.83776189    -0.13170
C241        C  0.89189536  0.18263582  0.81550028     0.00480
C242        C  0.88133296  0.15645876  0.80601575    -0.11700
C243        C  0.85549382  0.14595471  0.81602895     0.02970
C244        C  0.84129745  0.16073176  0.83753033    -0.11120
H245        H  0.88603107  0.21648371  0.84582323     0.08570
H246        H  0.89254610  0.14474029  0.78980354     0.06090
H247        H  0.82087918  0.15338131  0.84474751     0.05940
C248        C  0.68318057  0.35486645  0.85189450     0.02980
C249        C  0.69653453  0.37750713  0.83786338    -0.13170
C250        C  0.68419727  0.39024457  0.81397324     0.00480
C251        C  0.65914161  0.37873148  0.80305798    -0.11700
C252        C  0.64638796  0.35513391  0.81589109     0.02970
C253        C  0.65765726  0.34444744  0.84113699    -0.11120
H254        H  0.71708308  0.38452547  0.84486228     0.08570
H255        H  0.65009365  0.38747033  0.78392121     0.06090
H256        H  0.64710182  0.32704287  0.85177211     0.05940
O257        O  0.76328775  0.30588981  0.95143024    -0.74580
O258        O  0.80591229  0.26646165  0.00789150    -0.74610
O259        O  0.80474704  0.26639761  0.95025622    -0.74660
O260        O  0.76420758  0.30592647  0.00859185    -0.74710
O261        O  0.73248458  0.27109870  0.00946498    -0.74640
O262        O  0.77266311  0.23182272  0.95115263    -0.74620
O263        O  0.77413399  0.23154023  0.00811930    -0.74600
O264        O  0.73129477  0.27127781  0.95210960    -0.74660
Ni265      Ni  0.78573521  0.28737719  0.97954307     1.25410
Ni266      Ni  0.75148590  0.25024590  0.98027478     1.25360
C267        C  0.74035059  0.29495285  0.94229367     0.87600
C268        C  0.79710202  0.24246835  0.01716141     0.87530
C269        C  0.79526051  0.24263795  0.94104565     0.87560
C270        C  0.74155739  0.29499831  0.01862794     0.87730
C271        C  0.64676072  0.35700029  0.14470626     0.02980
C272        C  0.65784525  0.34627586  0.11921346    -0.13170
C273        C  0.68339453  0.35654684  0.10800067     0.00480
C274        C  0.69682062  0.37930533  0.12170326    -0.11700
C275        C  0.68513241  0.39131444  0.14618580     0.02970
C276        C  0.66061897  0.37969225  0.15800326    -0.11120
H277        H  0.64705283  0.32903678  0.10862656     0.08570
H278        H  0.71701972  0.38696215  0.11423138     0.06090
H279        H  0.65306771  0.38771609  0.17811697     0.05940
C280        C  0.35703332  0.64522253  0.14394909     0.02980
C281        C  0.34212824  0.65952448  0.12239185    -0.13170
C282        C  0.35136959  0.68586191  0.11181837     0.00480
C283        C  0.37521460  0.69857156  0.12393127    -0.11700
C284        C  0.39089259  0.68446434  0.14477538     0.02970
C285        C  0.38279910  0.65693698  0.15292380    -0.11120
H286        H  0.32301684  0.65048132  0.11397276     0.08570
H287        H  0.38120411  0.71981423  0.11747864     0.06090
H288        H  0.39634863  0.64516879  0.16704621     0.05940
C289        C  0.64791823  0.18423102  0.31588768     0.02980
C290        C  0.66036081  0.15980200  0.30436667    -0.13170
C291        C  0.68576668  0.14915497  0.31518217     0.00480
C292        C  0.69764816  0.16207898  0.33911635    -0.11700
C293        C  0.68445181  0.18542900  0.35218198     0.02970
C294        C  0.65952608  0.19637408  0.34032238    -0.11120
H295        H  0.65076595  0.14974124  0.28616957     0.08570
H296        H  0.71784456  0.15469258  0.34680887     0.06090
H297        H  0.64972806  0.21505004  0.34944345     0.05940
C298        C  0.35523710  0.14706845  0.31698919     0.02980
C299        C  0.34106391  0.16179491  0.33863200    -0.13170
C300        C  0.35268941  0.18648883  0.35028014     0.00480
C301        C  0.37764992  0.19773037  0.33907950    -0.11700
C302        C  0.39213940  0.18351430  0.31733533     0.02970
C303        C  0.38130176  0.15757492  0.30736960    -0.11120
H304        H  0.32062048  0.15469920  0.34596748     0.08570
H305        H  0.38499947  0.21809954  0.34668850     0.06090
H306        H  0.39269059  0.14604755  0.29113439     0.05940
C307        C  0.18311177  0.85676294  0.10714272     0.02980
C308        C  0.19587925  0.87949422  0.12115257    -0.13170
C309        C  0.18435899  0.89015931  0.14632087     0.00480
C310        C  0.15978621  0.87785692  0.15744873    -0.11700
C311        C  0.14640139  0.85520177  0.14339577     0.02970
C312        C  0.15814770  0.84508687  0.11791861    -0.11120
H313        H  0.21527742  0.88836811  0.11283152     0.08570
H314        H  0.15203024  0.88507328  0.17777868     0.06090
H315        H  0.14857559  0.82734284  0.10696953     0.05940
C316        C  0.35727799  0.89165519  0.31582457     0.02980
C317        C  0.34446241  0.87874116  0.33936284    -0.13170
C318        C  0.35698563  0.85518242  0.35268569     0.00480
C319        C  0.38217235  0.84407510  0.34139980    -0.11700
C320        C  0.39434846  0.85604065  0.31715083     0.02970
C321        C  0.38216955  0.88003269  0.30475202    -0.11120
H322        H  0.32417750  0.88647399  0.34656041     0.08570
H323        H  0.39180948  0.82545468  0.35077349     0.06090
H324        H  0.39152893  0.88900959  0.28580948     0.05940
O325        O  0.30664957  0.04747998  0.23257634    -0.74580
O326        O  0.26537970  0.98975699  0.19371088    -0.74610
O327        O  0.26481013  0.04741359  0.19362653    -0.74660
O328        O  0.30688956  0.98994611  0.23253559    -0.74710
O329        O  0.27434382  0.98918368  0.26667784    -0.74640
O330        O  0.23360450  0.04814137  0.22889800    -0.74620
O331        O  0.23254948  0.99063733  0.22760287    -0.74600
O332        O  0.27541103  0.04662026  0.26778704    -0.74660
Ni333      Ni  0.28706561  0.01869039  0.21187093     1.25410
Ni334      Ni  0.25282206  0.01863707  0.24896914     1.25360
C335        C  0.29802055  0.05650974  0.25663972     0.87600
C336        C  0.24219952  0.98072560  0.20426108     0.87530
C337        C  0.24241717  0.05753105  0.20504860     0.87560
C338        C  0.29724044  0.97978242  0.25576308     0.87730
C339        C  0.35679118  0.18494575  0.60678285     0.02980
C340        C  0.34513959  0.15982193  0.61760832    -0.13170
C341        C  0.35478226  0.14839205  0.64333242     0.00480
C342        C  0.37772548  0.16133865  0.65697927    -0.11700
C343        C  0.39011589  0.18597332  0.64581633     0.02970
C344        C  0.37972127  0.19752146  0.62060976    -0.11120
H345        H  0.32760251  0.15004748  0.60670131     0.08570
H346        H  0.38528625  0.15300139  0.67694254     0.06090
H347        H  0.38874343  0.21699425  0.61235504     0.05940
C348        C  0.18152572  0.39302868  0.64466357     0.02980
C349        C  0.15686949  0.38051231  0.65546022    -0.13170
C350        C  0.14621071  0.35542105  0.64365802     0.00480
C351        C  0.16002287  0.34301838  0.62050839    -0.11700
C352        C  0.18415476  0.35568921  0.60882834     0.02970
C353        C  0.19509315  0.38035701  0.62139764    -0.11120
H354        H  0.14653330  0.38965482  0.67379829     0.08570
H355        H  0.15229967  0.32313933  0.61195563     0.06090
H356        H  0.21458512  0.38932125  0.61344836     0.05940
C357        C  0.14511926  0.35416780  0.31632475     0.02980
C358        C  0.15653081  0.34300531  0.34125100    -0.13170
C359        C  0.18197826  0.35358885  0.35220197     0.00480
C360        C  0.19483886  0.37688831  0.33868900    -0.11700
C361        C  0.18308333  0.38875549  0.31415063     0.02970
C362        C  0.15819693  0.37724681  0.30303328    -0.11120
H363        H  0.14589159  0.32545816  0.35152789     0.08570
H364        H  0.21473834  0.38501923  0.34641159     0.06090
H365        H  0.14949592  0.38565383  0.28356813     0.05940
C366        C  0.85336482  0.14868699  0.14455369     0.02980
C367        C  0.84307835  0.15994525  0.11899742    -0.13170
C368        C  0.85580229  0.18381583  0.10665896     0.00480
C369        C  0.88059904  0.19470676  0.11839091    -0.11700
C370        C  0.89149106  0.18361848  0.14365805     0.02970
C371        C  0.87735705  0.16102154  0.15692753    -0.11120
H372        H  0.82451593  0.15091539  0.10923742     0.08570
H373        H  0.89084344  0.21263925  0.10831553     0.06090
H374        H  0.88464641  0.15351584  0.17730909     0.05940
C375        C  0.85816327  0.35632176  0.35532744     0.02980
C376        C  0.84876476  0.38257536  0.34476572    -0.13170
C377        C  0.85840007  0.39313057  0.31858898     0.00480
C378        C  0.87988948  0.37819931  0.30442594    -0.11700
C379        C  0.89152837  0.35352074  0.31621231     0.02970
C380        C  0.87984453  0.34203579  0.34093929    -0.11120
H381        H  0.83285221  0.39417175  0.35647746     0.08570
H382        H  0.88722905  0.38511159  0.28386032     0.06090
H383        H  0.88714498  0.32152516  0.34827818     0.05940
O384        O  0.98965694  0.30526453  0.23408335    -0.74580
O385        O  0.04807238  0.26646135  0.19356675    -0.74610
O386        O  0.99095615  0.26600731  0.19274969    -0.74660
O387        O  0.04680650  0.30611932  0.23504943    -0.74710
O388        O  0.04776122  0.27091893  0.26672435    -0.74640
O389        O  0.98994604  0.23198469  0.22556376    -0.74620
O390        O  0.04678396  0.23125120  0.22516316    -0.74600
O391        O  0.99057924  0.27156832  0.26734010    -0.74660
Ni392      Ni  0.01891327  0.28719749  0.21271506     1.25410
Ni393      Ni  0.01876245  0.25022093  0.24740430     1.25360
C394        C  0.98051062  0.29470618  0.25731231     0.87600
C395        C  0.05672370  0.24226780  0.20247675     0.87530
C396        C  0.98094763  0.24265717  0.20232493     0.87560
C397        C  0.05675513  0.29488860  0.25757006     0.87730
C398        C  0.18418727  0.68393080  0.35242502     0.02980
C399        C  0.15901944  0.69505202  0.34155560    -0.13170
C400        C  0.14804591  0.68525499  0.31577058     0.00480
C401        C  0.16129636  0.66224184  0.30222193    -0.11700
C402        C  0.18631295  0.65056579  0.31300925     0.02970
C403        C  0.19774179  0.66169852  0.33804022    -0.11120
H404        H  0.14858386  0.71215368  0.35278310     0.08570
H405        H  0.15283708  0.65408143  0.28258447     0.06090
H406        H  0.21768352  0.65368965  0.34583516     0.05940
C407        C  0.18491797  0.14894439  0.14611679     0.02980
C408        C  0.15958889  0.16038965  0.15673847    -0.13170
C409        C  0.14722463  0.18429587  0.14407177     0.00480
C410        C  0.15904140  0.19527120  0.11918101    -0.11700
C411        C  0.18471433  0.18485249  0.10866660     0.02970
C412        C  0.19780290  0.16207025  0.12267122    -0.11120
H413        H  0.14998896  0.15136353  0.17550487     0.08570
H414        H  0.14872952  0.21285147  0.10861613     0.06090
H415        H  0.21852485  0.15519611  0.11593159     0.05940
C416        C  0.35564725  0.35413364  0.10875129     0.02980
C417        C  0.37956960  0.34144506  0.12085492    -0.13170
C418        C  0.39330996  0.35412085  0.14383834     0.00480
C419        C  0.38242722  0.37917479  0.15556276    -0.11700
C420        C  0.35736427  0.39110043  0.14518462     0.02970
C421        C  0.34475691  0.37902542  0.12114710    -0.11120
H422        H  0.38717158  0.32122635  0.11302107     0.08570
H423        H  0.39286914  0.38860069  0.17361873     0.06090
H424        H  0.32574699  0.38846353  0.11270299     0.05940
C425        C  0.18452538  0.14828693  0.81508974     0.02980
C426        C  0.16054761  0.16030065  0.80247958    -0.13170
C427        C  0.14787485  0.18446488  0.81422899     0.00480
C428        C  0.15882061  0.19625098  0.83912696    -0.11700
C429        C  0.18372503  0.18554685  0.85113574     0.02970
C430        C  0.19615027  0.16121415  0.83918033    -0.11120
H431        H  0.15246298  0.15155636  0.78290343     0.08570
H432        H  0.14853240  0.21461454  0.84832651     0.06090
H433        H  0.21551030  0.15283554  0.84797624     0.05940
C434        C  0.39355448  0.35701537  0.81554863     0.02980
C435        C  0.37969076  0.38004499  0.80292351    -0.13170
C436        C  0.35447531  0.39044022  0.81436762     0.00480
C437        C  0.34326689  0.37790241  0.83885055    -0.11700
C438        C  0.35667468  0.35454072  0.85153224     0.02970
C439        C  0.38226372  0.34470113  0.84011274    -0.11120
H440        H  0.38792880  0.38912041  0.78350972     0.08570
H441        H  0.32335314  0.38553941  0.84716351     0.06090
H442        H  0.39286586  0.32668422  0.84959244     0.05940
O443        O  0.23315484  0.26759322  0.95028011    -0.74580
O444        O  0.27250868  0.30776437  0.00822264    -0.74610
O445        O  0.27410134  0.30768085  0.95109387    -0.74660
O446        O  0.23191085  0.26778834  0.00761543    -0.74710
O447        O  0.26491544  0.23411441  0.00893115    -0.74640
O448        O  0.30617051  0.27302102  0.95105489    -0.74620
O449        O  0.30581872  0.27437508  0.00840390    -0.74600
O450        O  0.26516036  0.23291799  0.95181414    -0.74660
Ni451      Ni  0.25174512  0.28889239  0.97923148     1.25410
Ni452      Ni  0.28671360  0.25239972  0.98006827     1.25360
C453        C  0.24244343  0.24352470  0.94170804     0.87600
C454        C  0.29556886  0.29770063  0.01796491     0.87530
C455        C  0.29710604  0.29689942  0.94177489     0.87560
C456        C  0.24164033  0.24460203  0.01788489     0.87730
O457        O  0.30469828  0.48868488  0.22741139    -0.74580
O458        O  0.26460394  0.54716480  0.26653769    -0.74610
O459        O  0.26368679  0.48982801  0.26742609    -0.74660
O460        O  0.30536726  0.54600392  0.22616568    -0.74710
O461        O  0.27256962  0.54619091  0.19260029    -0.74640
O462        O  0.23154179  0.48914668  0.23303918    -0.74620
O463        O  0.23176379  0.54714649  0.23287586    -0.74600
O464        O  0.27257771  0.48911478  0.19304101    -0.74660
Ni465      Ni  0.28573153  0.51793636  0.24809757     1.25410
Ni466      Ni  0.25085238  0.51789870  0.21176048     1.25360
C467        C  0.29558788  0.47964259  0.20358566     0.87600
C468        C  0.24163636  0.55682651  0.25620486     0.87530
C469        C  0.24091420  0.48000753  0.25674741     0.87560
C470        C  0.29605070  0.55513242  0.20236327     0.87730
O471        O  0.49129096  0.27210591  0.19373101    -0.74580
O472        O  0.54929194  0.23260819  0.23380378    -0.74610
O473        O  0.49229118  0.23138353  0.23389479    -0.74660
O474        O  0.54842636  0.27324441  0.19357937    -0.74710
O475        O  0.54808500  0.30655560  0.22711369    -0.74640
O476        O  0.49112727  0.26472700  0.26731011    -0.74620
O477        O  0.54800119  0.26549491  0.26778983    -0.74600
O478        O  0.49100993  0.30586917  0.22690308    -0.74660
Ni479      Ni  0.52035169  0.25118361  0.21256194     1.25410
Ni480      Ni  0.51954431  0.28689241  0.24847643     1.25360
C481        C  0.48155479  0.29537871  0.20381856     0.87600
C482        C  0.55795964  0.24240155  0.25750622     0.87530
C483        C  0.48230178  0.24110600  0.25712976     0.87560
C484        C  0.55776216  0.29660008  0.20376674     0.87730
O485        O  0.27280449  0.23450475  0.45052015    -0.74580
O486        O  0.23455486  0.27327184  0.51064028    -0.74610
O487        O  0.23242584  0.27469105  0.45333771    -0.74660
O488        O  0.27529933  0.23276868  0.50773886    -0.74710
O489        O  0.30797747  0.26686830  0.50760528    -0.74640
O490        O  0.26527724  0.30849782  0.45282050    -0.74620
O491        O  0.26743661  0.30712792  0.51006533    -0.74600
O492        O  0.30596295  0.26815480  0.45029009    -0.74660
Ni493      Ni  0.25258607  0.25260763  0.48062738     1.25410
Ni494      Ni  0.28784463  0.28886227  0.48017525     1.25360
C495        C  0.29554477  0.24510479  0.44047841     0.87600
C496        C  0.24478949  0.29648662  0.52033362     0.87530
C497        C  0.24190284  0.29835308  0.44388506     0.87560
C498        C  0.29868724  0.24297079  0.51658625     0.87730
O499        O  0.23403287  0.76627451  0.45077340    -0.74580
O500        O  0.27359385  0.80569824  0.50929633    -0.74610
O501        O  0.27475592  0.80650278  0.45207957    -0.74660
O502        O  0.23271932  0.76515426  0.50800690    -0.74710
O503        O  0.26615152  0.73182263  0.50863419    -0.74640
O504        O  0.30710917  0.77212708  0.45167689    -0.74620
O505        O  0.30666747  0.77202566  0.50911552    -0.74600
O506        O  0.26646471  0.73193782  0.45136552    -0.74660
Ni507      Ni  0.25258497  0.78711732  0.48007845     1.25410
Ni508      Ni  0.28777463  0.75079452  0.48021285     1.25360
C509        C  0.24386585  0.74278725  0.44126693     0.87600
C510        C  0.29676407  0.79546419  0.51871401     0.87530
C511        C  0.29764373  0.79581507  0.44232571     0.87560
C512        C  0.24261280  0.74168955  0.51754275     0.87730
O513        O  0.73242576  0.26766644  0.45266758    -0.74580
O514        O  0.77316090  0.30665444  0.51068855    -0.74610
O515        O  0.77293751  0.30785952  0.45356824    -0.74660
O516        O  0.73234593  0.26622341  0.50992621    -0.74710
O517        O  0.76560792  0.23264741  0.50946571    -0.74640
O518        O  0.80596545  0.27421376  0.45262376    -0.74620
O519        O  0.80616622  0.27281605  0.50986854    -0.74600
O520        O  0.76514318  0.23362980  0.45213642    -0.74660
Ni521      Ni  0.75153287  0.28828578  0.48177791     1.25410
Ni522      Ni  0.78689447  0.25210128  0.48095313     1.25360
C523        C  0.74213785  0.24430239  0.44275330     0.87600
C524        C  0.79639114  0.29617498  0.51965490     0.87530
C525        C  0.79608804  0.29794954  0.44373912     0.87560
C526        C  0.74233846  0.24263848  0.51895718     0.87730
O527        O  0.27250172  0.49058996  0.76822272    -0.74580
O528        O  0.23233585  0.54877821  0.72868489    -0.74610
O529        O  0.23139297  0.49123597  0.72886952    -0.74660
O530        O  0.27361049  0.54802282  0.76819027    -0.74710
O531        O  0.30546576  0.54814676  0.73333178    -0.74640
O532        O  0.26400317  0.49014002  0.69482579    -0.74620
O533        O  0.26419677  0.54737794  0.69386207    -0.74600
O534        O  0.30547722  0.49069170  0.73442534    -0.74660
Ni535      Ni  0.25130025  0.51969560  0.74971408     1.25410
Ni536      Ni  0.28597953  0.51904422  0.71290412     1.25360
C537        C  0.29569451  0.48130619  0.75791302     0.87600
C538        C  0.24145602  0.55730289  0.70461391     0.87530
C539        C  0.24077943  0.48124236  0.70547821     0.87560
C540        C  0.29628383  0.55762308  0.75702756     0.87730
O541        O  0.77359229  0.49150234  0.26906416    -0.74580
O542        O  0.73331245  0.54821983  0.22785288    -0.74610
O543        O  0.73314422  0.49048014  0.22877763    -0.74660
O544        O  0.77390262  0.54876863  0.26795989    -0.74710
O545        O  0.80629399  0.54872977  0.23366856    -0.74640
O546        O  0.76644384  0.48953358  0.19534274    -0.74620
O547        O  0.76570114  0.54697860  0.19359217    -0.74600
O548        O  0.80702860  0.49116378  0.23592422    -0.74660
Ni549      Ni  0.75227749  0.51975625  0.24956420     1.25410
Ni550      Ni  0.78755855  0.51903421  0.21342920     1.25360
C551        C  0.79703917  0.48206028  0.25950779     0.87600
C552        C  0.74292630  0.55715511  0.20412649     0.87530
C553        C  0.74322489  0.48038826  0.20569436     0.87560
C554        C  0.79672693  0.55844219  0.25710488     0.87730
O555        O  0.54828736  0.27308418  0.76631107    -0.74580
O556        O  0.49052546  0.23266460  0.72700457    -0.74610
O557        O  0.54778303  0.23226953  0.72614155    -0.74660
O558        O  0.49131253  0.27366177  0.76710253    -0.74710
O559        O  0.49040992  0.30621726  0.73273522    -0.74640
O560        O  0.54818538  0.26588469  0.69292436    -0.74620
O561        O  0.49127375  0.26523857  0.69266026    -0.74600
O562        O  0.54736555  0.30703011  0.73336321    -0.74660
Ni563      Ni  0.51948853  0.25171536  0.74782805     1.25410
Ni564      Ni  0.51934283  0.28728902  0.71172174     1.25360
C565        C  0.55707635  0.29684741  0.75652751     0.87600
C566        C  0.48153116  0.24222734  0.70332681     0.87530
C567        C  0.55734889  0.24230001  0.70279375     0.87560
C568        C  0.48133880  0.29652195  0.75636545     0.87730
O569        O  0.49125525  0.80761795  0.23288434    -0.74580
O570        O  0.54845927  0.76676572  0.19226009    -0.74610
O571        O  0.49148479  0.76747928  0.19173586    -0.74660
O572        O  0.54832180  0.80722390  0.23341208    -0.74710
O573        O  0.54783152  0.77321834  0.26628216    -0.74640
O574        O  0.49088050  0.73377029  0.22484932    -0.74620
O575        O  0.54802511  0.73316336  0.22557454    -0.74600
O576        O  0.49085947  0.77372830  0.26596647    -0.74660
Ni577      Ni  0.51992481  0.78850567  0.21139222     1.25410
Ni578      Ni  0.51935309  0.75226138  0.24681562     1.25360
C579        C  0.48169224  0.79725844  0.25605484     0.87600
C580        C  0.55767151  0.74325303  0.20234245     0.87530
C581        C  0.48174918  0.74406497  0.20147358     0.87560
C582        C  0.55756138  0.79666284  0.25660354     0.87730
O583        O  0.80644878  0.76728246  0.50823225    -0.74580
O584        O  0.76427650  0.80742612  0.45197313    -0.74610
O585        O  0.76518086  0.80712974  0.50897317    -0.74660
O586        O  0.80564189  0.76744104  0.45089562    -0.74710
O587        O  0.77261664  0.73369337  0.45073385    -0.74640
O588        O  0.73347285  0.77216463  0.51021943    -0.74620
O589        O  0.73153817  0.77341650  0.45296053    -0.74600
O590        O  0.77467213  0.73240723  0.50786471    -0.74660
Ni591      Ni  0.78658746  0.78852099  0.47999080     1.25410
Ni592      Ni  0.75191636  0.75170759  0.48047073     1.25360
C593        C  0.79760258  0.74318681  0.51721901     0.87600
C594        C  0.74076482  0.79718205  0.44353084     0.87530
C595        C  0.74273337  0.79605010  0.51921958     0.87560
C596        C  0.79552326  0.74425571  0.44102387     0.87730
O597        O  0.77396822  0.54893414  0.69252728    -0.74580
O598        O  0.73305579  0.49032854  0.73099900    -0.74610
O599        O  0.73268290  0.54805911  0.73175002    -0.74660
O600        O  0.77434519  0.49125365  0.69158307    -0.74710
O601        O  0.80658573  0.49076096  0.72592167    -0.74640
O602        O  0.76491452  0.54787049  0.76600565    -0.74620
O603        O  0.76506026  0.49040640  0.76547666    -0.74600
O604        O  0.80650746  0.54826727  0.72648684    -0.74660
Ni605      Ni  0.75236023  0.51963865  0.71050332     1.25410
Ni606      Ni  0.78692712  0.51930903  0.74719725     1.25360
C607        C  0.79695756  0.55826477  0.70320103     0.87600
C608        C  0.74237840  0.48065082  0.75453140     0.87530
C609        C  0.74209468  0.55758965  0.75526356     0.87560
C610        C  0.79720494  0.48163661  0.70222879     0.87730
O611        O  0.54862346  0.80696794  0.72758926    -0.74580
O612        O  0.49087909  0.76725105  0.76810606    -0.74610
O613        O  0.54796991  0.76630302  0.76859871    -0.74660
O614        O  0.49171995  0.80753692  0.72712087    -0.74710
O615        O  0.49154297  0.77332431  0.69443125    -0.74640
O616        O  0.54853894  0.73300257  0.73497050    -0.74620
O617        O  0.49139063  0.73312446  0.73541527    -0.74600
O618        O  0.54864672  0.77324285  0.69439643    -0.74660
Ni619      Ni  0.51983074  0.78822127  0.74905576     1.25410
Ni620      Ni  0.52000162  0.75197531  0.71363190     1.25360
C621        C  0.55797258  0.79673863  0.70428986     0.87600
C622        C  0.48178473  0.74350922  0.75859892     0.87530
C623        C  0.55760561  0.74299451  0.75839745     0.87560
C624        C  0.48215397  0.79691091  0.70412056     0.87730
C625        C  0.33086650  0.35514207  0.89764236    -0.26470
C626        C  0.34271298  0.33935137  0.87534889    -0.14540
C627        C  0.33974432  0.30943602  0.87532431     0.36090
C628        C  0.32561736  0.29607663  0.89781018    -0.25920
C629        C  0.31327912  0.31193917  0.91965723    -0.15160
C630        C  0.31604539  0.34177567  0.91971612     0.37170
N631        N  0.30405538  0.35833799  0.94229718    -0.89410
H632        H  0.33318067  0.37803786  0.89780958     0.18290
H633        H  0.32320629  0.27318390  0.89769227     0.18280
N634        N  0.35009094  0.29278763  0.85199573    -0.88430
H635        H  0.30781420  0.37998367  0.93905693     0.35660
H636        H  0.31449655  0.35276975  0.96094841     0.40750
H637        H  0.33864675  0.29862221  0.83403608     0.40370
H638        H  0.34623801  0.27117305  0.85532612     0.35260
C639        C  0.41179973  0.33200026  0.77357379    -0.26470
C640        C  0.41719789  0.34301460  0.80060490    -0.14540
C641        C  0.44400987  0.33871167  0.81301577     0.36090
C642        C  0.46432089  0.32285350  0.79825906    -0.25920
C643        C  0.45878843  0.31187218  0.77125133    -0.15160
C644        C  0.43205740  0.31629632  0.75880871     0.37170
N645        N  0.42433915  0.30463947  0.73174799    -0.89410
H646        H  0.39119110  0.33489264  0.76414131     0.18290
H647        H  0.48486965  0.31961831  0.80770826     0.18280
N648        N  0.45155574  0.35036839  0.84009525    -0.88430
H649        H  0.40738072  0.29085055  0.73505024     0.35660
H650        H  0.44034786  0.29224334  0.72301420     0.40750
H651        H  0.43549274  0.36300245  0.84841354     0.40370
H652        H  0.46866391  0.36399020  0.83689911     0.35260
C653        C  0.29757076  0.43264424  0.77656633    -0.26470
C654        C  0.31099984  0.45889004  0.77306115    -0.14540
C655        C  0.33877570  0.46265198  0.78320065     0.36090
C656        C  0.35241772  0.43984319  0.79641695    -0.25920
C657        C  0.33906972  0.41344684  0.79974498    -0.15160
C658        C  0.31135913  0.40970269  0.78926257     0.37170
N659        N  0.29704950  0.38278732  0.78971003    -0.89410
H660        H  0.27645407  0.42962492  0.76838360     0.18290
H661        H  0.37354467  0.44286825  0.80454326     0.18280
N662        N  0.35336915  0.48937636  0.78152280    -0.88430
H663        H  0.28045528  0.38429461  0.80421428     0.35660
H664        H  0.31011385  0.36620472  0.79615829     0.40750
H665        H  0.34079425  0.50541417  0.77301717     0.40370
H666        H  0.37055493  0.48670245  0.76790696     0.35260
C667        C  0.20956087  0.18496221  0.89729811    -0.26470
C668        C  0.19789235  0.20070832  0.87488535    -0.14540
C669        C  0.20101441  0.23063294  0.87482378     0.36090
C670        C  0.21478977  0.24400556  0.89741423    -0.25920
C671        C  0.22686266  0.22822253  0.91939296    -0.15160
C672        C  0.22422449  0.19837111  0.91941794     0.37170
N673        N  0.23612539  0.18183764  0.94201661    -0.89410
H674        H  0.20717184  0.16207996  0.89759431     0.18290
H675        H  0.21717344  0.26690207  0.89725625     0.18280
N676        N  0.19130464  0.24731346  0.85130174    -0.88430
H677        H  0.23250979  0.16017884  0.93873948     0.35660
H678        H  0.22551826  0.18731473  0.96065018     0.40750
H679        H  0.20343455  0.24161991  0.83370730     0.40370
H680        H  0.19489359  0.26894549  0.85477153     0.35260
C681        C  0.34005583  0.31373757  0.04045584    -0.26470
C682        C  0.31051554  0.31311441  0.04067704    -0.14540
C683        C  0.29576117  0.32658197  0.06294865     0.36090
C684        C  0.31095662  0.33938604  0.08497923    -0.25920
C685        C  0.34058335  0.34024963  0.08475963    -0.15160
C686        C  0.35514603  0.32766038  0.06184743     0.37170
N687        N  0.38519909  0.32953673  0.05974793    -0.89410
H688        H  0.35153564  0.30384427  0.02322104     0.18290
H689        H  0.29947252  0.34849168  0.10260318     0.18280
N690        N  0.26546304  0.32630406  0.06378992    -0.88430
H691        H  0.39330391  0.30889333  0.05886368     0.35660
H692        H  0.39020466  0.33971585  0.04072672     0.40750
H693        H  0.25832322  0.33988137  0.04783970     0.40370
H694        H  0.25807152  0.33496654  0.08277871     0.35260
C695        C  0.33073051  0.43702721  0.14508428    -0.26470
C696        C  0.34294783  0.41466447  0.16055096    -0.14540
C697        C  0.33961780  0.41411905  0.19034582     0.36090
C698        C  0.32476666  0.43607189  0.20384019    -0.25920
C699        C  0.31197053  0.45784262  0.18827990    -0.15160
C700        C  0.31508830  0.45849374  0.15860081     0.37170
N701        N  0.30266075  0.48107499  0.14235646    -0.89410
H702        H  0.33335762  0.43773123  0.12232100     0.18290
H703        H  0.32219068  0.43558149  0.22662746     0.18280
N704        N  0.35031162  0.39077029  0.20676492    -0.88430
H705        H  0.30673862  0.47829084  0.12078570     0.35660
H706        H  0.31251317  0.50002057  0.14827187     0.40750
H707        H  0.33930329  0.37253661  0.20070978     0.40370
H708        H  0.34622318  0.39377549  0.22830418     0.35260
C709        C  0.46416112  0.33727076  0.17763922    -0.26470
C710        C  0.45882819  0.31015494  0.18869418    -0.14540
C711        C  0.43216299  0.29745454  0.18446540     0.36090
C712        C  0.41167180  0.31212736  0.16907463    -0.25920
C713        C  0.41691132  0.33924378  0.15791924    -0.15160
C714        C  0.44367136  0.35190553  0.16204265     0.37170
N715        N  0.45122045  0.37887809  0.14993341    -0.89410
H716        H  0.48470069  0.34688379  0.18057938     0.18290
H717        H  0.39106933  0.30254735  0.16648454     0.18280
N718        N  0.42457971  0.27044978  0.19650156    -0.88430
H719        H  0.45378893  0.39329725  0.16654743     0.35660
H720        H  0.43549560  0.38683595  0.13675166     0.40750
H721        H  0.44039779  0.26228050  0.20940994     0.40370
H722        H  0.42173825  0.25613843  0.17984046     0.35260
C723        C  0.19922183  0.22950401  0.08436549    -0.26470
C724        C  0.19884640  0.19963913  0.08466388    -0.14540
C725        C  0.21202913  0.18464220  0.06235615     0.36090
C726        C  0.22591613  0.19984293  0.04083919    -0.25920
C727        C  0.22600287  0.22967107  0.04051235    -0.15160
C728        C  0.21217663  0.24468218  0.06235679     0.37170
N729        N  0.21231538  0.27523334  0.06285149    -0.89410
H730        H  0.18957291  0.24115833  0.10161546     0.18290
H731        H  0.23634624  0.18834824  0.02392692     0.18280
N732        N  0.21096967  0.15413531  0.06138406    -0.88430
H733        H  0.20337425  0.28281148  0.08163302     0.35660
H734        H  0.19911696  0.28223990  0.04661536     0.40750
H735        H  0.18988295  0.14824676  0.05895510     0.40370
H736        H  0.22176068  0.14645141  0.04365040     0.35260
C737        C  0.20839695  0.60270192  0.31343336    -0.26470
C738        C  0.20085611  0.62700801  0.29793959    -0.14540
C739        C  0.20692398  0.62793770  0.26852562     0.36090
C740        C  0.21900429  0.60421403  0.25535991    -0.25920
C741        C  0.22691270  0.58019562  0.27095756    -0.15160
C742        C  0.22188570  0.57953553  0.30040504     0.37170
N743        N  0.22968491  0.55508476  0.31684988    -0.89410
H744        H  0.20376245  0.60182630  0.33588369     0.18290
H745        H  0.22359839  0.60513939  0.23289617     0.18280
N746        N  0.20294932  0.65301547  0.25165736    -0.88430
H747        H  0.22265395  0.55720175  0.33773023     0.35660
H748        H  0.25165978  0.55447622  0.31785055     0.40750
H749        H  0.20003718  0.67111418  0.26406277     0.40370
H750        H  0.18500916  0.65000391  0.23924539     0.35260
C751        C  0.22323729  0.69885384  0.42130090    -0.26470
C752        C  0.22886736  0.72798062  0.41830782    -0.14540
C753        C  0.21928118  0.74242495  0.39387500     0.36090
C754        C  0.20394799  0.72752402  0.37351605    -0.25920
C755        C  0.19828936  0.69839465  0.37638987    -0.15160
C756        C  0.20785827  0.68390087  0.40083735     0.37170
N757        N  0.20145882  0.65455355  0.40627372    -0.89410
H758        H  0.23020382  0.68775470  0.44013318     0.18290
H759        H  0.19729921  0.73866628  0.35458757     0.18280
N760        N  0.22603143  0.77161480  0.38799733    -0.88430
H761        H  0.22028621  0.64309175  0.40493187     0.35660
H762        H  0.18762328  0.64617441  0.39134270     0.40750
H763        H  0.24135988  0.77964805  0.40157134     0.40370
H764        H  0.20766177  0.78358331  0.39069385     0.35260
C765        C  0.10004450  0.18393070  0.16783736    -0.26470
C766        C  0.12348035  0.19935728  0.15814227    -0.14540
C767        C  0.12464007  0.22901649  0.16296744     0.36090
C768        C  0.10209469  0.24260503  0.17664732    -0.25920
C769        C  0.07893921  0.22713656  0.18663623    -0.15160
C770        C  0.07774619  0.19752863  0.18210245     0.37170
N771        N  0.05378550  0.18149311  0.19170561    -0.89410
H772        H  0.09910774  0.16123546  0.16415230     0.18290
H773        H  0.10307934  0.26527650  0.18052324     0.18280
N774        N  0.14911026  0.24509944  0.15481107    -0.88430
H775        H  0.05621836  0.15997597  0.18676344     0.35660
H776        H  0.03619642  0.18864871  0.18048889     0.40750
H777        H  0.16608120  0.23773144  0.16681581     0.40370
H778        H  0.14655775  0.26658339  0.15983226     0.35260
C779        C  0.90989369  0.32753960  0.27461121    -0.26470
C780        C  0.91486189  0.33868538  0.30166042    -0.14540
C781        C  0.94179419  0.33528649  0.31420467     0.36090
C782        C  0.96269259  0.32014051  0.29958852    -0.25920
C783        C  0.95768070  0.30928697  0.27250567    -0.15160
C784        C  0.93106588  0.31281516  0.25991110     0.37170
N785        N  0.92555662  0.30097131  0.23246881    -0.89410
H786        H  0.88927957  0.33006285  0.26511211     0.18290
H787        H  0.98328997  0.31753653  0.30911583     0.18280
N788        N  0.94895872  0.34731155  0.34124290    -0.88430
H789        H  0.90495418  0.30550932  0.22612923     0.35660
H790        H  0.92692603  0.27886906  0.23430822     0.40750
H791        H  0.93249147  0.35926282  0.34973526     0.40370
H792        H  0.96550351  0.36160512  0.33796109     0.35260
C793        C  0.81432721  0.42017950  0.30828411    -0.26470
C794        C  0.84367010  0.41765586  0.30488265    -0.14540
C795        C  0.85784265  0.43781209  0.28775049     0.36090
C796        C  0.84212165  0.45824851  0.27277929    -0.25920
C797        C  0.81274407  0.46029546  0.27590825    -0.15160
C798        C  0.79891339  0.44166507  0.29484675     0.37170
N799        N  0.76919959  0.44422554  0.30024023    -0.89410
H800        H  0.80296939  0.40484344  0.32099244     0.18290
H801        H  0.85298709  0.47314340  0.25910327     0.18280
N802        N  0.88808116  0.43790390  0.28598177    -0.88430
H803        H  0.76265020  0.42968320  0.31561955     0.35660
H804        H  0.75874757  0.43872159  0.28167861     0.40750
H805        H  0.89583405  0.44249763  0.30615045     0.40370
H806        H  0.89511749  0.45412296  0.27260149     0.35260
C807        C  0.81333573  0.34357540  0.37967759    -0.26470
C808        C  0.84294420  0.34257010  0.37932212    -0.14540
C809        C  0.85710076  0.32763108  0.40099895     0.36090
C810        C  0.84131098  0.31310203  0.42167187    -0.25920
C811        C  0.81172742  0.31412776  0.42188867    -0.15160
C812        C  0.79760845  0.33008554  0.40094293     0.37170
N813        N  0.76734714  0.33167742  0.40055793    -0.89410
H814        H  0.80226532  0.35463019  0.36294790     0.18290
H815        H  0.85217758  0.30127845  0.43802198     0.18280
N816        N  0.88736381  0.32750273  0.40217008    -0.88430
H817        H  0.76033781  0.34197656  0.38227544     0.35660
H818        H  0.76114365  0.34458496  0.41745079     0.40750
H819        H  0.89395800  0.34839864  0.40563463     0.40370
H820        H  0.89441856  0.31554438  0.41940042     0.35260
C821        C  0.91482352  0.22772671  0.15999734    -0.26470
C822        C  0.91563079  0.19797323  0.15766061    -0.14540
C823        C  0.93877888  0.18303380  0.16946751     0.36090
C824        C  0.95942820  0.19808188  0.18440505    -0.25920
C825        C  0.95863552  0.22781203  0.18639112    -0.15160
C826        C  0.93637986  0.24285245  0.17347838     0.37170
N827        N  0.93512061  0.27333657  0.17489095    -0.89410
H828        H  0.89710670  0.23933453  0.15133688     0.18290
H829        H  0.97685570  0.18648793  0.19368468     0.18280
N830        N  0.94293399  0.15303795  0.16561630    -0.88430
H831        H  0.91614761  0.28082330  0.16651469     0.35660
H832        H  0.95099198  0.28130476  0.16174732     0.40750
H833        H  0.92938082  0.14458670  0.15047707     0.40370
H834        H  0.93886699  0.14302942  0.18494790     0.35260
C835        C  0.12823888  0.31396821  0.28748912    -0.26470
C836        C  0.12193012  0.33909950  0.30205541    -0.14540
C837        C  0.09417072  0.34961928  0.30220106     0.36090
C838        C  0.07312734  0.33474754  0.28740005    -0.25920
C839        C  0.07945623  0.30953935  0.27281828    -0.15160
C840        C  0.10745945  0.29914008  0.27262219     0.37170
N841        N  0.11576087  0.27406670  0.25728138    -0.89410
H842        H  0.14970263  0.30606203  0.28727182     0.18290
H843        H  0.05168253  0.34268370  0.28737546     0.18280
N844        N  0.08755715  0.37525137  0.31733441    -0.88430
H845        H  0.13019813  0.28029394  0.24172540     0.35660
H846        H  0.09891064  0.26481596  0.24659903     0.40750
H847        H  0.09106828  0.37136938  0.33882644     0.40370
H848        H  0.06616992  0.38013923  0.31528106     0.35260
C849        C  0.20936095  0.35587482  0.39744508    -0.26470
C850        C  0.19617405  0.33934203  0.37651232    -0.14540
C851        C  0.19806192  0.30942952  0.37832363     0.36090
C852        C  0.21228369  0.29681929  0.40098951    -0.25920
C853        C  0.22604536  0.31328317  0.42142538    -0.15160
C854        C  0.22475075  0.34322115  0.41955998     0.37170
N855        N  0.23842831  0.36068796  0.44034884    -0.89410
H856        H  0.20793537  0.37881713  0.39637168     0.18290
H857        H  0.21351875  0.27384127  0.40192875     0.18280
N858        N  0.18674259  0.29164298  0.35655156    -0.88430
H859        H  0.23350922  0.38210323  0.43711374     0.35660
H860        H  0.26013585  0.35896643  0.43705104     0.40750
H861        H  0.20318119  0.27951293  0.34807592     0.40370
H862        H  0.17223974  0.27775656  0.36585465     0.35260
C863        C  0.20350983  0.43747443  0.31368393    -0.26470
C864        C  0.19781599  0.41210166  0.29920535    -0.14540
C865        C  0.20643341  0.40912590  0.27074975     0.36090
C866        C  0.21988278  0.43192673  0.25710988    -0.25920
C867        C  0.22558373  0.45723572  0.27159970    -0.15160
C868        C  0.21725275  0.46016253  0.30008743     0.37170
N869        N  0.22220510  0.48637280  0.31481075    -0.89410
H870        H  0.19683723  0.43968282  0.33551852     0.18290
H871        H  0.22665082  0.42970474  0.23530150     0.18280
N872        N  0.20204576  0.38275631  0.25606763    -0.88430
H873        H  0.21485276  0.48506745  0.33564384     0.35660
H874        H  0.21013778  0.50201094  0.30483524     0.40750
H875        H  0.21402007  0.36719374  0.26628350     0.40370
H876        H  0.20968785  0.38404065  0.23533820     0.35260
C877        C  0.22826093  0.33589235  0.58862528    -0.26470
C878        C  0.19944526  0.34168002  0.58518694    -0.14540
C879        C  0.18582691  0.33264253  0.56007578     0.36090
C880        C  0.20108216  0.31718353  0.53986674    -0.25920
C881        C  0.22987856  0.31149397  0.54333356    -0.15160
C882        C  0.24368650  0.32108894  0.56810518     0.37170
N883        N  0.27279821  0.31512769  0.57401466    -0.89410
H884        H  0.23882617  0.34228462  0.60790771     0.18290
H885        H  0.19052683  0.31043482  0.52069325     0.18280
N886        N  0.15712874  0.33987122  0.55358019    -0.88430
H887        H  0.28370768  0.33441052  0.57367547     0.35660
H888        H  0.28193224  0.30203597  0.55880826     0.40750
H889        H  0.14884528  0.35479467  0.56762591     0.40370
H890        H  0.14508417  0.32135250  0.55515600     0.35260
C891        C  0.19827705  0.41503881  0.68925888    -0.26470
C892        C  0.19485677  0.41724020  0.65978960    -0.14540
C893        C  0.20587380  0.44139899  0.64561407     0.36090
C894        C  0.22121672  0.46158373  0.66096299    -0.25920
C895        C  0.22450640  0.45928754  0.69036159    -0.15160
C896        C  0.21248749  0.43600642  0.70476702     0.37170
N897        N  0.21590404  0.43295964  0.73484481    -0.89410
H898        H  0.19026438  0.39651352  0.70024485     0.18290
H899        H  0.22994062  0.47973612  0.64989296     0.18280
N900        N  0.20093716  0.44694334  0.61613299    -0.88430
H901        H  0.20778375  0.41349603  0.74172464     0.35660
H902        H  0.20359769  0.44857382  0.74458772     0.40750
H903        H  0.18582418  0.43335636  0.60761538     0.40370
H904        H  0.21989545  0.44376207  0.60528410     0.35260
C905        C  0.33874010  0.18602709  0.55715838    -0.26470
C906        C  0.34280325  0.19990743  0.58310985    -0.14540
C907        C  0.33248994  0.22777673  0.58680910     0.36090
C908        C  0.31901419  0.24145488  0.56425856    -0.25920
C909        C  0.31468563  0.22761601  0.53841730    -0.15160
C910        C  0.32494324  0.19958320  0.53461761     0.37170
N911        N  0.32222168  0.18443668  0.50832413    -0.89410
H912        H  0.34656512  0.16457709  0.55432603     0.18290
H913        H  0.31105558  0.26279363  0.56716337     0.18280
N914        N  0.33502834  0.24176661  0.61373854    -0.88430
H915        H  0.34254426  0.18022676  0.50083425     0.35660
H916        H  0.31252640  0.19676767  0.49280336     0.40750
H917        H  0.32306610  0.23027379  0.62839863     0.40370
H918        H  0.32631199  0.26215876  0.61292866     0.35260
C919        C  0.43323134  0.22322619  0.70254741    -0.26470
C920        C  0.45900219  0.22686417  0.68848000    -0.14540
C921        C  0.46206966  0.21698043  0.66036173     0.36090
C922        C  0.43914058  0.20393477  0.64704774    -0.25920
C923        C  0.41324337  0.20045442  0.66102594    -0.15160
C924        C  0.41015253  0.21065693  0.68908879     0.37170
N925        N  0.38375463  0.21011790  0.70408054    -0.89410
H926        H  0.43066222  0.23128638  0.72389324     0.18290
H927        H  0.44169757  0.19602331  0.62565357     0.18280
N928        N  0.48824363  0.21869620  0.64506924    -0.88430
H929        H  0.38556143  0.19535667  0.72051241     0.35660
H930        H  0.36704840  0.20383024  0.69126337     0.40750
H931        H  0.50450307  0.22664460  0.65754369     0.40370
H932        H  0.48538596  0.23284579  0.62826036     0.35260
C933        C  0.22602099  0.08068823  0.16072436    -0.26470
C934        C  0.22662660  0.08038900  0.19041730    -0.14540
C935        C  0.21282373  0.10227291  0.20553267     0.36090
C936        C  0.19969001  0.12439989  0.19058962    -0.25920
C937        C  0.19895293  0.12473496  0.16086220    -0.15160
C938        C  0.21182356  0.10219966  0.14579037     0.37170
N939        N  0.21011121  0.10095792  0.11544354    -0.89410
H940        H  0.23623441  0.06370250  0.14910322     0.18290
H941        H  0.19022368  0.14170859  0.20233935     0.18280
N942        N  0.21304174  0.10265142  0.23595871    -0.88430
H943        H  0.22073318  0.08311249  0.10766842     0.35660
H944        H  0.18890295  0.09844333  0.11009813     0.40750
H945        H  0.19980753  0.08632840  0.24290552     0.40370
H946        H  0.20412883  0.12146824  0.24361652     0.35260
C947        C  0.33741472  0.91184878  0.27183098    -0.26470
C948        C  0.34303591  0.91526158  0.30078105    -0.14540
C949        C  0.33376897  0.94027524  0.31465863     0.36090
C950        C  0.31841771  0.96055851  0.29942003    -0.25920
C951        C  0.31281980  0.95708230  0.27048660    -0.15160
C952        C  0.32246728  0.93228612  0.25649800     0.37170
N953        N  0.31631098  0.92616362  0.22735764    -0.89410
H954        H  0.34397777  0.89257466  0.26112113     0.18290
H955        H  0.31146892  0.97968884  0.31014635     0.18280
N956        N  0.34050016  0.94651803  0.34364061    -0.88430
H957        H  0.33526092  0.92695433  0.21607281     0.35660
H958        H  0.30271743  0.94099433  0.21839768     0.40750
H959        H  0.35485347  0.93206662  0.35210661     0.40370
H960        H  0.32188701  0.94514079  0.35542639     0.35260
C961        C  0.41001321  0.82254564  0.28046439    -0.26470
C962        C  0.41740567  0.84120102  0.30232980    -0.14540
C963        C  0.44615020  0.84553084  0.30886180     0.36090
C964        C  0.46675180  0.83087979  0.29329024    -0.25920
C965        C  0.45927479  0.81230437  0.27135592    -0.15160
C966        C  0.43052542  0.80792863  0.26493281     0.37170
N967        N  0.42132214  0.78906658  0.24285295    -0.89410
H968        H  0.38797325  0.81932007  0.27540395     0.18290
H969        H  0.48880269  0.83405237  0.29832071     0.18280
N970        N  0.45518146  0.86436144  0.33100653    -0.88430
H971        H  0.40985024  0.77266877  0.25236320     0.35660
H972        H  0.43819369  0.77951875  0.23234870     0.40750
H973        H  0.43813618  0.87390931  0.34124962     0.40370
H974        H  0.46674596  0.88073927  0.32157858     0.35260
C975        C  0.34075867  0.81065459  0.37625214    -0.26470
C976        C  0.34244407  0.84046483  0.37654830    -0.14540
C977        C  0.32959904  0.85557453  0.39903749     0.36090
C978        C  0.31471736  0.84059038  0.42007062    -0.25920
C979        C  0.31321011  0.81082588  0.41968075    -0.15160
C980        C  0.32643591  0.79569369  0.39756271     0.37170
N981        N  0.32464751  0.76521648  0.39637686    -0.89410
H982        H  0.35005003  0.79891779  0.35886626     0.18290
H983        H  0.30475978  0.85215204  0.43722037     0.18280
N984        N  0.33207357  0.88596618  0.40072720    -0.88430
H985        H  0.33574856  0.75734209  0.37892041     0.35660
H986        H  0.30349892  0.75987854  0.39326965     0.40750
H987        H  0.35337898  0.89077832  0.40354709     0.40370
H988        H  0.32141484  0.89375711  0.41849509     0.35260
C989        C  0.18457079  0.93826963  0.16838428    -0.26470
C990        C  0.19905418  0.91308182  0.16182714    -0.14540
C991        C  0.22758535  0.91013652  0.16965427     0.36090
C992        C  0.24131181  0.93281428  0.18302372    -0.25920
C993        C  0.22688682  0.95794568  0.18955928    -0.15160
C994        C  0.19829167  0.96084927  0.18214988     0.37170
N995        N  0.18357582  0.98689286  0.18804718    -0.89410
H996        H  0.16269422  0.94047802  0.16224721     0.18290
H997        H  0.26323460  0.93066410  0.18889304     0.18280
N998        N  0.24234396  0.88396847  0.16436977    -0.88430
H999        H  0.16271746  0.98562478  0.18110842     0.35660
H1000       H  0.19317147  0.00298296  0.17618843     0.40750
H1001       H  0.23258012  0.86810755  0.17638683     0.40370
H1002       H  0.26314492  0.88527594  0.17147172     0.35260
C1003       C  0.31283796  0.07987217  0.30150238    -0.26470
C1004       C  0.31418897  0.07875336  0.27181304    -0.14540
C1005       C  0.33018757  0.09943725  0.25718987     0.36090
C1006       C  0.34320396  0.12135136  0.27247707    -0.25920
C1007       C  0.34172764  0.12263644  0.30217256    -0.15160
C1008       C  0.32681164  0.10121039  0.31676076     0.37170
N1009       N  0.32622994  0.10061930  0.34705316    -0.89410
H1010       H  0.30111743  0.06384857  0.31304154     0.18290
H1011       H  0.35426424  0.13783697  0.26095844     0.18280
N1012       N  0.33240283  0.09886727  0.22683999    -0.88430
H1013       H  0.30518560  0.10137856  0.35359292     0.35660
H1014       H  0.33470619  0.08123756  0.35372302     0.40750
H1015       H  0.34532022  0.08169086  0.22147622     0.40370
H1016       H  0.34281908  0.11695995  0.21938444     0.35260
C1017       C  0.41787130  0.19578683  0.27292905    -0.26470
C1018       C  0.41654955  0.19705710  0.30262696    -0.14540
C1019       C  0.43781578  0.21196347  0.31726208     0.36090
C1020       C  0.45899787  0.22618749  0.30202859    -0.25920
C1021       C  0.46015256  0.22495188  0.27235240    -0.15160
C1022       C  0.43968954  0.20889780  0.25769597     0.37170
N1023       N  0.44040639  0.20671799  0.22735132    -0.89410
H1024       H  0.40150928  0.18479759  0.26135325     0.18290
H1025       H  0.47491387  0.23791997  0.31354679     0.18280
N1026       N  0.43841109  0.21225548  0.34755509    -0.88430
H1027       H  0.42242504  0.19638863  0.21983734     0.35660
H1028       H  0.45738746  0.19360787  0.22201820     0.40750
H1029       H  0.45762259  0.20363655  0.35410417     0.40370
H1030       H  0.43767544  0.23341899  0.35424342     0.35260
C1031       C  0.33303500  0.21329147  0.42320496    -0.26470
C1032       C  0.30982779  0.23060602  0.41701194    -0.14540
C1033       C  0.30052969  0.23334463  0.38869180     0.36090
C1034       C  0.31480194  0.21859835  0.36726115    -0.25920
C1035       C  0.33806884  0.20139273  0.37347020    -0.15160
C1036       C  0.34732285  0.19861628  0.40163263     0.37170
N1037       N  0.37076967  0.18044422  0.40821012    -0.89410
H1038       H  0.33992204  0.21115801  0.44495330     0.18290
H1039       H  0.30784983  0.22077063  0.34553760     0.18280
N1040       N  0.27726336  0.25125405  0.38078885    -0.88430
H1041       H  0.37437888  0.18013352  0.43002476     0.35660
H1042       H  0.38875233  0.18927343  0.39892232     0.40750
H1043       H  0.26871478  0.26191861  0.39814004     0.40370
H1044       H  0.26137850  0.23818255  0.37277435     0.35260
C1045       C  0.60007615  0.20665477  0.31569199    -0.26470
C1046       C  0.62446537  0.19858964  0.30080991    -0.14540
C1047       C  0.62679707  0.20522495  0.27170410     0.36090
C1048       C  0.60436539  0.21876123  0.25794320    -0.25920
C1049       C  0.58021269  0.22702478  0.27283772    -0.15160
C1050       C  0.57788388  0.22089884  0.30196147     0.37170
N1051       N  0.55287852  0.22879018  0.31729945    -0.89410
H1052       H  0.59831058  0.20166894  0.33800798     0.18290
H1053       H  0.60611989  0.22378526  0.23563465     0.18280
N1054       N  0.65229951  0.19902910  0.25642310    -0.88430
H1055       H  0.55450113  0.22272404  0.33851964     0.35660
H1056       H  0.53604503  0.21732534  0.30879796     0.40750
H1057       H  0.66838079  0.21131575  0.26523821     0.40370
H1058       H  0.65056825  0.20524310  0.23525471     0.35260
C1059       C  0.70011845  0.22992998  0.37609529    -0.26470
C1060       C  0.69816462  0.20013778  0.37642721    -0.14540
C1061       C  0.71011256  0.18495050  0.39928639     0.36090
C1062       C  0.72467181  0.19979561  0.42053909    -0.25920
C1063       C  0.72667840  0.22952089  0.41999834    -0.15160
C1064       C  0.71408987  0.24477019  0.39765433     0.37170
N1065       N  0.71628492  0.27521031  0.39645566    -0.89410
H1066       H  0.69140529  0.24171158  0.35847581     0.18290
H1067       H  0.73404198  0.18816650  0.43793335     0.18280
N1068       N  0.70709300  0.15461292  0.40106609    -0.88430
H1069       H  0.70566524  0.28319840  0.37879935     0.35660
H1070       H  0.73756087  0.28021222  0.39364871     0.40750
H1071       H  0.68563594  0.15018146  0.40341365     0.40370
H1072       H  0.71710370  0.14674289  0.41913045     0.35260
C1073       C  0.32609204  0.60166199  0.14318475    -0.26470
C1074       C  0.34432464  0.61968556  0.15837895    -0.14540
C1075       C  0.34752880  0.61461214  0.18781844     0.36090
C1076       C  0.33235426  0.59286875  0.20106135    -0.25920
C1077       C  0.31266893  0.57651596  0.18630510    -0.15160
C1078       C  0.30954865  0.58092213  0.15684863     0.37170
N1079       N  0.28975022  0.56443738  0.14076073    -0.89410
H1080       H  0.32400993  0.60415410  0.12053536     0.18290
H1081       H  0.33514294  0.58975159  0.22360522     0.18280
N1082       N  0.36505395  0.63215660  0.20506632    -0.88430
H1083       H  0.29178511  0.56873856  0.11914291     0.35660
H1084       H  0.26956262  0.57133788  0.14638084     0.40750
H1085       H  0.38014293  0.61922386  0.21474344     0.40370
H1086       H  0.35259080  0.64127094  0.22092740     0.35260
C1087       C  0.43370317  0.71563942  0.14337751    -0.26470
C1088       C  0.41462967  0.69924265  0.15926318    -0.14540
C1089       C  0.41749898  0.69844392  0.18904936     0.36090
C1090       C  0.44012295  0.71245505  0.20194264    -0.25920
C1091       C  0.45911448  0.72884859  0.18613976    -0.15160
C1092       C  0.45557263  0.73087963  0.15650387     0.37170
N1093       N  0.47406678  0.74832355  0.13979981    -0.89410
H1094       H  0.43151998  0.71661606  0.12058904     0.18290
H1095       H  0.44222013  0.71153157  0.22475149     0.18280
N1096       N  0.39678324  0.68445930  0.20631573    -0.88430
H1097       H  0.46812569  0.74799336  0.11851089     0.35660
H1098       H  0.49412935  0.73932936  0.14074546     0.40750
H1099       H  0.37775129  0.69536656  0.20384965     0.40370
H1100       H  0.40201647  0.68575582  0.22775284     0.35260
C1101       C  0.57985851  0.34182104  0.18740039    -0.26470
C1102       C  0.58025018  0.31201620  0.18836980    -0.14540
C1103       C  0.60204950  0.29714138  0.17441015     0.36090
C1104       C  0.62306722  0.31235710  0.16002753    -0.25920
C1105       C  0.62282502  0.34219476  0.15894794    -0.15160
C1106       C  0.60062841  0.35707793  0.17242571     0.37170
N1107       N  0.59896773  0.38750742  0.17049321    -0.89410
H1108       H  0.56291348  0.35320055  0.19782835     0.18290
H1109       H  0.64024139  0.30077165  0.15023886     0.18280
N1110       N  0.60323474  0.26662998  0.17551936    -0.88430
H1111       H  0.58140552  0.39511894  0.18153191     0.35660
H1112       H  0.59590170  0.39270939  0.14921264     0.40750
H1113       H  0.60671833  0.26083621  0.19657874     0.40370
H1114       H  0.62040689  0.25897193  0.16390709     0.35260
C1115       C  0.71519946  0.40801411  0.18548911    -0.26470
C1116       C  0.69998329  0.41444049  0.16096865    -0.14540
C1117       C  0.69873314  0.44269254  0.15113839     0.36090
C1118       C  0.71296759  0.46411405  0.16615674    -0.25920
C1119       C  0.72804404  0.45765457  0.19080597    -0.15160
C1120       C  0.72917084  0.42942797  0.20059500     0.37170
N1121       N  0.74455576  0.42268639  0.22580621    -0.89410
H1122       H  0.71600089  0.38623862  0.19290428     0.18290
H1123       H  0.71219967  0.48589949  0.15876644     0.18280
N1124       N  0.68249053  0.44953918  0.12642808    -0.88430
H1125       H  0.74438072  0.40078435  0.22948180     0.35660
H1126       H  0.73345010  0.43192001  0.24253449     0.40750
H1127       H  0.69209357  0.43969441  0.10908726     0.40370
H1128       H  0.68311836  0.47139046  0.12249241     0.35260
C1129       C  0.83424446  0.18446649  0.05854089    -0.26470
C1130       C  0.84171453  0.19913817  0.08322751    -0.14540
C1131       C  0.83485675  0.22826046  0.08586867     0.36090
C1132       C  0.82114953  0.24219148  0.06353197    -0.25920
C1133       C  0.81334406  0.22742887  0.03907774    -0.15160
C1134       C  0.82018493  0.19839427  0.03634783     0.37170
N1135       N  0.81333322  0.18339986  0.01081919    -0.89410
H1136       H  0.83959602  0.16217463  0.05653560     0.18290
H1137       H  0.81559938  0.26443408  0.06560893     0.18280
N1138       N  0.84108573  0.24333736  0.11156730    -0.88430
H1139       H  0.81969889  0.16217311  0.01219774     0.35660
H1140       H  0.82520601  0.19253778  0.99454615     0.40750
H1141       H  0.82914237  0.23416527  0.12778364     0.40370
H1142       H  0.83465883  0.26453681  0.11008006     0.35260
C1143       C  0.72599039  0.34024894  0.04110021    -0.26470
C1144       C  0.72564407  0.31039719  0.04094459    -0.14540
C1145       C  0.71054706  0.29587425  0.06230353     0.36090
C1146       C  0.69713803  0.31148178  0.08378058    -0.25920
C1147       C  0.69734509  0.34136237  0.08398845    -0.15160
C1148       C  0.71153055  0.35589270  0.06196680     0.37170
N1149       N  0.71091565  0.38639587  0.06058015    -0.89410
H1150       H  0.73717060  0.35146221  0.02449345     0.18290
H1151       H  0.68673822  0.30009170  0.10075682     0.18280
N1152       N  0.70969233  0.26533859  0.06284654    -0.88430
H1153       H  0.72240305  0.39371479  0.04313794     0.35660
H1154       H  0.69000313  0.39255557  0.05736508     0.40750
H1155       H  0.69675076  0.25878930  0.04622656     0.40370
H1156       H  0.69991656  0.25809595  0.08133988     0.35260
C1157       C  0.69748281  0.31018794  0.87625844    -0.26470
C1158       C  0.69704673  0.34005259  0.87600379    -0.14540
C1159       C  0.71014385  0.35500198  0.89831097     0.36090
C1160       C  0.72410730  0.33976410  0.91971088    -0.25920
C1161       C  0.72437821  0.30992275  0.91993365    -0.15160
C1162       C  0.71052762  0.29496385  0.89814100     0.37170
N1163       N  0.71074993  0.26441719  0.89753553    -0.89410
H1164       H  0.68788488  0.29856177  0.85901995     0.18290
H1165       H  0.73452724  0.35124883  0.93657084     0.18280
N1166       N  0.70897485  0.38550317  0.89936608    -0.88430
H1167       H  0.70176324  0.25689574  0.87880425     0.35660
H1168       H  0.69761079  0.25734994  0.91385498     0.40750
H1169       H  0.68786117  0.39133649  0.90187672     0.40370
H1170       H  0.71970384  0.39316111  0.91708698     0.35260
C1171       C  0.60005604  0.35557161  0.79069228    -0.26470
C1172       C  0.62292392  0.34004952  0.80153068    -0.14540
C1173       C  0.62391996  0.31029337  0.79735296     0.36090
C1174       C  0.60174767  0.29673341  0.78322336    -0.25920
C1175       C  0.57917038  0.31227139  0.77210951    -0.15160
C1176       C  0.57815478  0.34196907  0.77595015     0.37170
N1177       N  0.55473600  0.35807947  0.76526689    -0.89410
H1178       H  0.59923863  0.37835041  0.79386796     0.18290
H1179       H  0.60255519  0.27395089  0.77998798     0.18280
N1180       N  0.64786006  0.29404445  0.80663694    -0.88430
H1181       H  0.55725043  0.37966870  0.76981268     0.35660
H1182       H  0.53668184  0.35140223  0.77609981     0.40750
H1183       H  0.66536153  0.30090506  0.79503776     0.40370
H1184       H  0.64521567  0.27249056  0.80200556     0.35260
C1185       C  0.70053310  0.41355280  0.76936710    -0.26470
C1186       C  0.69855963  0.41409932  0.79905233    -0.14540
C1187       C  0.71048216  0.43718724  0.81395901     0.36090
C1188       C  0.72500313  0.45844675  0.79896169    -0.25920
C1189       C  0.72688630  0.45780506  0.76933875    -0.15160
C1190       C  0.71429807  0.43524603  0.75434966     0.37170
N1191       N  0.71606032  0.43407690  0.72399619    -0.89410
H1192       H  0.69178548  0.39578787  0.75778981     0.18290
H1193       H  0.73437102  0.47599463  0.81040519     0.18280
N1194       N  0.70738514  0.43926066  0.84416149    -0.88430
H1195       H  0.70547038  0.41624108  0.71623834     0.35660
H1196       H  0.73725445  0.43149694  0.71858356     0.40750
H1197       H  0.68591978  0.44162442  0.84857547     0.40370
H1198       H  0.71737978  0.45748399  0.85182118     0.35260
C1199       C  0.82906104  0.18534282  0.89569041    -0.26470
C1200       C  0.83736498  0.20101429  0.87179733    -0.14540
C1201       C  0.83136941  0.23053946  0.87080263     0.36090
C1202       C  0.81871360  0.24365797  0.89419157    -0.25920
C1203       C  0.81011995  0.22787655  0.91783529    -0.15160
C1204       C  0.81493028  0.19828690  0.91841956     0.37170
N1205       N  0.80624344  0.18158816  0.94236088    -0.89410
H1206       H  0.83358631  0.16278864  0.89657755     0.18290
H1207       H  0.81427048  0.26623457  0.89328875     0.18280
N1208       N  0.83602237  0.24756173  0.84598544    -0.88430
H1209       H  0.81335609  0.16064978  0.94036726     0.35660
H1210       H  0.78426426  0.18052016  0.94214601     0.40750
H1211       H  0.83979845  0.23518994  0.82806560     0.40370
H1212       H  0.85365637  0.26031812  0.84962770     0.35260
C1213       C  0.09870890  0.18562468  0.79628290    -0.26470
C1214       C  0.12487931  0.19917556  0.79906527    -0.14540
C1215       C  0.12848725  0.22689049  0.78791045     0.36090
C1216       C  0.10562901  0.24064062  0.77531515    -0.25920
C1217       C  0.07952332  0.22714581  0.77247827    -0.15160
C1218       C  0.07592457  0.19923395  0.78310544     0.37170
N1219       N  0.04939138  0.18453266  0.78203644    -0.89410
H1220       H  0.09582518  0.16447061  0.80488234     0.18290
H1221       H  0.10859495  0.26178791  0.76669878     0.18280
N1222       N  0.15520787  0.24125891  0.78769931    -0.88430
H1223       H  0.05185504  0.16707021  0.76859035     0.35660
H1224       H  0.03339341  0.19715255  0.77364120     0.40750
H1225       H  0.17166712  0.22809930  0.79410789     0.40370
H1226       H  0.15392920  0.25820237  0.80194079     0.35260
C1227       C  0.07498126  0.33768074  0.67644866    -0.26470
C1228       C  0.08066685  0.31090743  0.68813516    -0.14540
C1229       C  0.10773716  0.29873179  0.68472867     0.36090
C1230       C  0.12822038  0.31355927  0.66935593    -0.25920
C1231       C  0.12263959  0.34036090  0.65764035    -0.15160
C1232       C  0.09546959  0.35245793  0.66088516     0.37170
N1233       N  0.08773475  0.37924423  0.64843772    -0.89410
H1234       H  0.05419162  0.34693420  0.67892554     0.18290
H1235       H  0.14905914  0.30434742  0.66717375     0.18280
N1236       N  0.11551923  0.27187519  0.69704136    -0.88430
H1237       H  0.07112196  0.37542770  0.63445925     0.35660
H1238       H  0.10399419  0.38764306  0.63614641     0.40750
H1239       H  0.09917100  0.26297899  0.70883876     0.40370
H1240       H  0.13184494  0.27567652  0.71136217     0.35260
C1241       C  0.93617945  0.21163754  0.81649167    -0.26470
C1242       C  0.91596203  0.19668217  0.80070637    -0.14540
C1243       C  0.91783996  0.19718330  0.77083787     0.36090
C1244       C  0.93978603  0.21195902  0.75759348    -0.25920
C1245       C  0.95946820  0.22753060  0.77328632    -0.15160
C1246       C  0.95754935  0.22752127  0.80316279     0.37170
N1247       N  0.97748533  0.24309532  0.81994856    -0.89410
H1248       H  0.93507964  0.21128715  0.83938082     0.18290
H1249       H  0.94077986  0.21204965  0.73467705     0.18280
N1250       N  0.89683624  0.18383736  0.75365980    -0.88430
H1251       H  0.97444839  0.23891214  0.84146830     0.35660
H1252       H  0.97310097  0.26469517  0.81730568     0.40750
H1253       H  0.90684548  0.16897929  0.74061620     0.40370
H1254       H  0.88770991  0.19933386  0.74073947     0.35260
C1255       C  0.93308802  0.31393384  0.70123573    -0.26470
C1256       C  0.95968327  0.31252488  0.68842093    -0.14540
C1257       C  0.96386824  0.32497523  0.66145744     0.36090
C1258       C  0.94107285  0.33821358  0.64793869    -0.25920
C1259       C  0.91439194  0.33949075  0.66073389    -0.15160
C1260       C  0.91022162  0.32672613  0.68758911     0.37170
N1261       N  0.88316405  0.32570454  0.70140609    -0.89410
H1262       H  0.92982087  0.30416733  0.72176857     0.18290
H1263       H  0.94428372  0.34788604  0.62736350     0.18280
N1264       N  0.99079728  0.32502063  0.64738515    -0.88430
H1265       H  0.87782940  0.30430513  0.70398571     0.35660
H1266       H  0.86725107  0.33444685  0.68899083     0.40750
H1267       H  0.00636363  0.31531007  0.65956328     0.40370
H1268       H  0.99701023  0.34619765  0.64498790     0.35260
C1269       C  0.84066892  0.35005622  0.55924316    -0.26470
C1270       C  0.84012843  0.33853498  0.58660981    -0.14540
C1271       C  0.82515469  0.31301017  0.59172838     0.36090
C1272       C  0.81156994  0.29948869  0.56921361    -0.25920
C1273       C  0.81200993  0.31105623  0.54192490    -0.15160
C1274       C  0.82679915  0.33664136  0.53675959     0.37170
N1275       N  0.82888680  0.34917141  0.50906418    -0.89410
H1276       H  0.85215742  0.36956024  0.55529024     0.18290
H1277       H  0.79996780  0.28004983  0.57320894     0.18280
N1278       N  0.82234200  0.30072854  0.61947229    -0.88430
H1279       H  0.81856205  0.36878703  0.50972894     0.35660
H1280       H  0.81877760  0.33697481  0.49372061     0.40750
H1281       H  0.83146821  0.31327346  0.63514068     0.40370
H1282       H  0.83303995  0.28130719  0.61938630     0.35260
C1283       C  0.84948292  0.44210637  0.65579756    -0.26470
C1284       C  0.84040502  0.41404120  0.65973682    -0.14540
C1285       C  0.81717514  0.40842125  0.67773860     0.36090
C1286       C  0.80362629  0.43107730  0.69123425    -0.25920
C1287       C  0.81257245  0.45911573  0.68724156    -0.15160
C1288       C  0.83578587  0.46481130  0.66927241     0.37170
N1289       N  0.84564548  0.49315688  0.66374998    -0.89410
H1290       H  0.86721052  0.44641066  0.64194432     0.18290
H1291       H  0.78604388  0.42669138  0.70521540     0.18280
N1292       N  0.80708451  0.38014132  0.68332932    -0.88430
H1293       H  0.86600931  0.49480542  0.67195526     0.35660
H1294       H  0.83337658  0.50836794  0.67407629     0.40750
H1295       H  0.81915950  0.36463450  0.67321976     0.40370
H1296       H  0.78671224  0.37864224  0.67511515     0.35260
C1297       C  0.20311692  0.82823212  0.03448534    -0.26470
C1298       C  0.22772135  0.81313577  0.04111369    -0.14540
C1299       C  0.23757191  0.81263883  0.06931927     0.36090
C1300       C  0.22267896  0.82759835  0.09008469    -0.25920
C1301       C  0.19804544  0.84269707  0.08357059    -0.15160
C1302       C  0.18820241  0.84326462  0.05533058     0.37170
N1303       N  0.16351812  0.85888179  0.04699121    -0.89410
H1304       H  0.19557508  0.82854761  0.01284999     0.18290
H1305       H  0.23016439  0.82703300  0.11173887     0.18280
N1306       N  0.26221129  0.79698284  0.07781125    -0.88430
H1307       H  0.16991352  0.87444646  0.03255557     0.35660
H1308       H  0.15449711  0.86969907  0.06401349     0.40750
H1309       H  0.27168518  0.78646207  0.06086600     0.40370
H1310       H  0.25570232  0.78121545  0.09197752     0.35260
C1311       C  0.35240961  0.71266074  0.06627543    -0.26470
C1312       C  0.33636258  0.70038398  0.08813653    -0.14540
C1313       C  0.30663390  0.70240049  0.08700828     0.36090
C1314       C  0.29380699  0.71581340  0.06376602    -0.25920
C1315       C  0.30991989  0.72847394  0.04225900    -0.15160
C1316       C  0.33961699  0.72712719  0.04368333     0.37170
N1317       N  0.35673571  0.73965825  0.02185442    -0.89410
H1318       H  0.37517154  0.71100570  0.06684603     0.18290
H1319       H  0.27103578  0.71728508  0.06293175     0.18280
N1320       N  0.28955294  0.69163391  0.10976399    -0.88430
H1321       H  0.37795160  0.73449397  0.02479925     0.35660
H1322       H  0.35546140  0.76170561  0.02413896     0.40750
H1323       H  0.29425299  0.70348943  0.12785002     0.40370
H1324       H  0.26815973  0.69479667  0.10560227     0.35260
C1325       C  0.35306626  0.71051223  0.89677753    -0.26470
C1326       C  0.33737384  0.69843361  0.87465081    -0.14540
C1327       C  0.30762950  0.70067664  0.87525367     0.36090
C1328       C  0.29437137  0.71423367  0.89819202    -0.25920
C1329       C  0.31010832  0.72668576  0.91996236    -0.15160
C1330       C  0.33978169  0.72472953  0.91933482     0.37170
N1331       N  0.35628932  0.73688390  0.94173817    -0.89410
H1332       H  0.37582609  0.70872623  0.89652110     0.18290
H1333       H  0.27161259  0.71609629  0.89851410     0.18280
N1334       N  0.29100025  0.69011276  0.85214790    -0.88430
H1335       H  0.37778536  0.73376525  0.93799440     0.35660
H1336       H  0.35143295  0.72586090  0.96033354     0.40750
H1337       H  0.29620216  0.70199460  0.83418278     0.40370
H1338       H  0.26953777  0.69343039  0.85591336     0.35260
C1339       C  0.33150000  0.62771729  0.77395054    -0.26470
C1340       C  0.34224983  0.62232192  0.80106025    -0.14540
C1341       C  0.33819138  0.59524217  0.81346370     0.36090
C1342       C  0.32279054  0.57464711  0.79862987    -0.25920
C1343       C  0.31192985  0.58021287  0.77159361    -0.15160
C1344       C  0.31615787  0.60722009  0.75914700     0.37170
N1345       N  0.30458604  0.61502011  0.73209574    -0.89410
H1346       H  0.33428917  0.64853054  0.76450656     0.18290
H1347       H  0.31964155  0.55391615  0.80812681     0.18280
N1348       N  0.34955497  0.58775217  0.84065609    -0.88430
H1349       H  0.29068886  0.63194724  0.73542750     0.35660
H1350       H  0.29254176  0.59878743  0.72328329     0.40750
H1351       H  0.36161781  0.60417267  0.84913591     0.40370
H1352       H  0.36343753  0.57076535  0.83759276     0.35260
C1353       C  0.43695470  0.71712700  0.75752280    -0.26470
C1354       C  0.45901149  0.72830729  0.77379983    -0.14540
C1355       C  0.45799148  0.72533593  0.80372094     0.36090
C1356       C  0.43481793  0.71170595  0.81622598    -0.25920
C1357       C  0.41276355  0.70062450  0.79989306    -0.15160
C1358       C  0.41364558  0.70384737  0.77017648     0.37170
N1359       N  0.39054373  0.69433655  0.75297800    -0.89410
H1360       H  0.43749249  0.71951910  0.73473117     0.18290
H1361       H  0.43437920  0.70918233  0.83902037     0.18280
N1362       N  0.48004410  0.73505473  0.82217821    -0.88430
H1363       H  0.39449771  0.69833149  0.73156940     0.35660
H1364       H  0.37285279  0.70637707  0.75850868     0.40750
H1365       H  0.49719554  0.74307906  0.81105244     0.40370
H1366       H  0.48771261  0.71737931  0.83315120     0.35260
C1367       C  0.22602444  0.83739462  0.87499681    -0.26470
C1368       C  0.19714933  0.84333641  0.87824319    -0.14540
C1369       C  0.18316719  0.83447187  0.90330965     0.36090
C1370       C  0.19813611  0.81870111  0.92353873    -0.25920
C1371       C  0.22694341  0.81291994  0.92012333    -0.15160
C1372       C  0.24108292  0.82246167  0.89570461     0.37170
N1373       N  0.27050289  0.81626639  0.89168323    -0.89410
H1374       H  0.23677148  0.84382937  0.85577768     0.18290
H1375       H  0.18738346  0.81171334  0.94256816     0.18280
N1376       N  0.15426149  0.84154313  0.90933109    -0.88430
H1377       H  0.27775730  0.82487311  0.87261725     0.35660
H1378       H  0.27260865  0.79421647  0.88995076     0.40750
H1379       H  0.14605020  0.85543721  0.89427269     0.40370
H1380       H  0.15392423  0.85287955  0.92835266     0.35260
C1381       C  0.20082633  0.07795348  0.77848656    -0.26470
C1382       C  0.22924443  0.08185116  0.77123605    -0.14540
C1383       C  0.24293557  0.10740671  0.77893538     0.36090
C1384       C  0.22789148  0.12814250  0.79385999    -0.25920
C1385       C  0.19945014  0.12432799  0.80119159    -0.15160
C1386       C  0.18584430  0.09860539  0.79370873     0.37170
N1387       N  0.15745044  0.09207266  0.80214013    -0.89410
H1388       H  0.19035742  0.05827008  0.77294278     0.18290
H1389       H  0.23834957  0.14794525  0.79898380     0.18280
N1390       N  0.27142332  0.11389603  0.77074142    -0.88430
H1391       H  0.14495599  0.09211461  0.78396010     0.35660
H1392       H  0.14922365  0.10713762  0.81607181     0.40750
H1393       H  0.27992894  0.09878457  0.75704296     0.40370
H1394       H  0.28371258  0.11405291  0.78906098     0.35260
C1395       C  0.29687686  0.10120341  0.67364114    -0.26470
C1396       C  0.31263273  0.07977683  0.68682279    -0.14540
C1397       C  0.34234353  0.08044165  0.68503075     0.36090
C1398       C  0.35551962  0.10242906  0.66981308    -0.25920
C1399       C  0.33978076  0.12432952  0.65721366    -0.15160
C1400       C  0.31004617  0.12382247  0.65950788     0.37170
N1401       N  0.29330741  0.14672866  0.64842710    -0.89410
H1402       H  0.27410175  0.10088653  0.67533352     0.18290
H1403       H  0.37828195  0.10266107  0.66805155     0.18280
N1404       N  0.35904025  0.05852037  0.69797116    -0.88430
H1405       H  0.27185270  0.14298513  0.65178390     0.35660
H1406       H  0.29836953  0.16505056  0.65983736     0.40750
H1407       H  0.35787704  0.06138586  0.71987001     0.40370
H1408       H  0.38029377  0.06095651  0.69264316     0.35260
C1409       C  0.24273816  0.93731431  0.78414234    -0.26470
C1410       C  0.22717099  0.95950787  0.77208426    -0.14540
C1411       C  0.19751484  0.95938034  0.77424029     0.36090
C1412       C  0.18404267  0.93692232  0.78848636    -0.25920
C1413       C  0.19961326  0.91455708  0.80044311    -0.15160
C1414       C  0.22931386  0.91454578  0.79776829     0.37170
N1415       N  0.24570129  0.89105258  0.80814947    -0.89410
H1416       H  0.26548570  0.93725829  0.78204986     0.18290
H1417       H  0.16130032  0.93700874  0.79055213     0.18280
N1418       N  0.18126007  0.98223004  0.76237785    -0.88430
H1419       H  0.26717816  0.89438791  0.80450850     0.35660
H1420       H  0.24004814  0.87307325  0.79648559     0.40750
H1421       H  0.18647553  0.00076279  0.77337538     0.40370
H1422       H  0.15973911  0.97884070  0.76569141     0.35260
C1423       C  0.32439567  0.93661912  0.70372511    -0.26470
C1424       C  0.31113527  0.95781815  0.68766898    -0.14540
C1425       C  0.31289831  0.95678614  0.65784912     0.36090
C1426       C  0.32822907  0.93476458  0.64486635    -0.25920
C1427       C  0.34111283  0.91323402  0.66090197    -0.15160
C1428       C  0.33877996  0.91401633  0.69073742     0.37170
N1429       N  0.35025249  0.89149630  0.70775432    -0.89410
H1430       H  0.32277459  0.93722551  0.72659519     0.18290
H1431       H  0.33005416  0.93433434  0.62201450     0.18280
N1432       N  0.29995054  0.97848288  0.64084710    -0.88430
H1433       H  0.34678961  0.89538261  0.72926243     0.35660
H1434       H  0.33927737  0.87290592  0.70281244     0.40750
H1435       H  0.27815601  0.97561713  0.64210398     0.40370
H1436       H  0.30522137  0.97579196  0.61951767     0.35260
C1437       C  0.32553723  0.79471314  0.56245427    -0.26470
C1438       C  0.31219444  0.81062473  0.54128129    -0.14540
C1439       C  0.31345036  0.84056993  0.54223194     0.36090
C1440       C  0.32807464  0.85392318  0.56438962    -0.25920
C1441       C  0.34125380  0.83803030  0.58579580    -0.15160
C1442       C  0.33950573  0.80801987  0.58501279     0.37170
N1443       N  0.35111444  0.79114941  0.60752843    -0.89410
H1444       H  0.32422083  0.77173614  0.56190639     0.18290
H1445       H  0.32941477  0.87689442  0.56482288     0.18280
N1446       N  0.30026896  0.85729214  0.52050274    -0.88430
H1447       H  0.34805109  0.76949647  0.60369298     0.35660
H1448       H  0.33993544  0.79599462  0.62599405     0.40750
H1449       H  0.31068000  0.85297214  0.50146013     0.40370
H1450       H  0.30295580  0.87897597  0.52445402     0.35260
C1451       C  0.41441385  0.81319812  0.66500632    -0.26470
C1452       C  0.41884112  0.84146897  0.65667121    -0.14540
C1453       C  0.44443420  0.85506216  0.66404270     0.36090
C1454       C  0.46437714  0.84016632  0.68021251    -0.25920
C1455       C  0.45978650  0.81189881  0.68851475    -0.15160
C1456       C  0.43425142  0.79832962  0.68103945     0.37170
N1457       N  0.42715891  0.76997389  0.69000125    -0.89410
H1458       H  0.39469563  0.80279026  0.65989166     0.18290
H1459       H  0.48399289  0.85054796  0.68573526     0.18280
N1460       N  0.45117578  0.88349877  0.65516202    -0.88430
H1461       H  0.40874464  0.77126544  0.70212919     0.35660
H1462       H  0.44230891  0.76140249  0.70342514     0.40750
H1463       H  0.43577791  0.89174971  0.64176537     0.40370
H1464       H  0.46957015  0.88242432  0.64298678     0.35260
C1465       C  0.79615913  0.10148713  0.17641651    -0.26470
C1466       C  0.81225672  0.07972887  0.18862909    -0.14540
C1467       C  0.84188547  0.08036892  0.18597000     0.36090
C1468       C  0.85466508  0.10266462  0.17085779    -0.25920
C1469       C  0.83862016  0.12484743  0.15913126    -0.15160
C1470       C  0.80897026  0.12437135  0.16232148     0.37170
N1471       N  0.79199054  0.14749306  0.15209931    -0.89410
H1472       H  0.77344102  0.10114546  0.17878847     0.18290
H1473       H  0.87736183  0.10281113  0.16833281     0.18280
N1474       N  0.85885590  0.05802505  0.19779237    -0.88430
H1475       H  0.77063808  0.14377244  0.15609210     0.35660
H1476       H  0.79749092  0.16562970  0.16359410     0.40750
H1477       H  0.85824979  0.06017539  0.21979197     0.40370
H1478       H  0.87997189  0.06058518  0.19198874     0.35260
C1479       C  0.71841129  0.10296380  0.25769285    -0.26470
C1480       C  0.72939356  0.08043189  0.27357395    -0.14540
C1481       C  0.72609499  0.08033610  0.30323601     0.36090
C1482       C  0.71171209  0.10291259  0.31640407    -0.25920
C1483       C  0.70077399  0.12561481  0.30050588    -0.15160
C1484       C  0.70472034  0.12585038  0.27082416     0.37170
N1485       N  0.69562057  0.14970576  0.25418484    -0.89410
H1486       H  0.72136816  0.10314928  0.23494338     0.18290
H1487       H  0.70873407  0.10265403  0.33913978     0.18280
N1488       N  0.73688500  0.05712749  0.31976444    -0.88430
H1489       H  0.70000864  0.14646234  0.23273833     0.35660
H1490       H  0.70745556  0.16731571  0.26048719     0.40750
H1491       H  0.72586838  0.03883114  0.31389642     0.40370
H1492       H  0.73277996  0.06036911  0.34126762     0.35260
C1493       C  0.68646708  0.93776555  0.29479669    -0.26470
C1494       C  0.70098119  0.91235874  0.30026353    -0.14540
C1495       C  0.72972222  0.91004289  0.29233802     0.36090
C1496       C  0.74321702  0.93337989  0.27997779    -0.25920
C1497       C  0.72863524  0.95863613  0.27430921    -0.15160
C1498       C  0.69987689  0.96096265  0.28200060     0.37170
N1499       N  0.68393668  0.98670157  0.27840638    -0.89410
H1500       H  0.66456716  0.93979533  0.30106403     0.18290
H1501       H  0.76508625  0.93132169  0.27359171     0.18280
N1502       N  0.74550001  0.88409039  0.29492773    -0.88430
H1503       H  0.66864764  0.98291582  0.26298455     0.35660
H1504       H  0.69639336  0.00354685  0.27139321     0.40750
H1505       H  0.73280737  0.86685272  0.30036352     0.40370
H1506       H  0.76032600  0.88689994  0.31099862     0.35260
C1507       C  0.62258227  0.81131973  0.30062924    -0.26470
C1508       C  0.62260397  0.84114918  0.30184505    -0.14540
C1509       C  0.60067316  0.85636531  0.28847601     0.36090
C1510       C  0.57981655  0.84142269  0.27348882    -0.25920
C1511       C  0.57994673  0.81161862  0.27234530    -0.15160
C1512       C  0.60150802  0.79640585  0.28617368     0.37170
N1513       N  0.60242287  0.76589518  0.28481555    -0.89410
H1514       H  0.63959579  0.79952234  0.31033517     0.18290
H1515       H  0.56305653  0.85305046  0.26310709     0.18280
N1516       N  0.59942410  0.88681031  0.29047779    -0.88430
H1517       H  0.61947363  0.75798471  0.29636042     0.35660
H1518       H  0.60595889  0.76025182  0.26370886     0.40750
H1519       H  0.59635379  0.89199568  0.31177389     0.40370
H1520       H  0.58200324  0.89469172  0.27948407     0.35260
C1521       C  0.70316687  0.85482491  0.40150470    -0.26470
C1522       C  0.69588743  0.83967732  0.37701242    -0.14540
C1523       C  0.70328166  0.81061720  0.37494790     0.36090
C1524       C  0.71690290  0.79732600  0.39745419    -0.25920
C1525       C  0.72444457  0.81241018  0.42180240    -0.15160
C1526       C  0.71729165  0.84158615  0.42400031     0.37170
N1527       N  0.72293551  0.85816764  0.44889332    -0.89410
H1528       H  0.69768291  0.87711606  0.40321767     0.18290
H1529       H  0.72240982  0.77510262  0.39547704     0.18280
N1530       N  0.69876591  0.79439355  0.34970661    -0.88430
H1531       H  0.73811963  0.87334414  0.44357533     0.35660
H1532       H  0.73107174  0.84588762  0.46532039     0.40750
H1533       H  0.70772611  0.80521754  0.33258318     0.40370
H1534       H  0.67719901  0.79206404  0.34634650     0.35260
C1535       C  0.81227961  0.91015737  0.16809127    -0.26470
C1536       C  0.84013684  0.91457735  0.15910141    -0.14540
C1537       C  0.85354322  0.94072978  0.16533706     0.36090
C1538       C  0.83888439  0.96137918  0.18083991    -0.25920
C1539       C  0.81101378  0.95693139  0.18967979    -0.15160
C1540       C  0.79757869  0.93084823  0.18341275     0.37170
N1541       N  0.76975323  0.92390503  0.19336943    -0.89410
H1542       H  0.80207397  0.89000943  0.16385483     0.18290
H1543       H  0.84911471  0.98145830  0.18535295     0.18280
N1544       N  0.88136949  0.94763724  0.15539260    -0.88430
H1545       H  0.75651810  0.92274769  0.17576644     0.35660
H1546       H  0.76156136  0.93932935  0.20691935     0.40750
H1547       H  0.88939672  0.93225161  0.14169428     0.40370
H1548       H  0.89464881  0.94854543  0.17297779     0.35260
C1549       C  0.09994311  0.74330763  0.28678407    -0.26470
C1550       C  0.07927495  0.72727941  0.27293329    -0.14540
C1551       C  0.08088691  0.69731483  0.27362071     0.36090
C1552       C  0.10293464  0.68412967  0.28848792    -0.25920
C1553       C  0.12400270  0.70014939  0.30191425    -0.15160
C1554       C  0.12269250  0.73018754  0.30051924     0.37170
N1555       N  0.14498236  0.74732492  0.31200436    -0.89410
H1556       H  0.09903316  0.76629025  0.28579434     0.18290
H1557       H  0.10373362  0.66115395  0.28947514     0.18280
N1558       N  0.06021340  0.68034584  0.25925741    -0.88430
H1559       H  0.14073857  0.76894889  0.30923726     0.35660
H1560       H  0.16327340  0.74294331  0.30043236     0.40750
H1561       H  0.04086128  0.68378053  0.26919977     0.40370
H1562       H  0.06470831  0.65870831  0.26149532     0.35260
C1563       C  0.12157228  0.81025565  0.15644556    -0.26470
C1564       C  0.12205899  0.84013773  0.15669340    -0.14540
C1565       C  0.09994866  0.85489991  0.17041040     0.36090
C1566       C  0.07891410  0.83950119  0.18474569    -0.25920
C1567       C  0.07866412  0.80966291  0.18467182    -0.15160
C1568       C  0.09989299  0.79488328  0.16972108     0.37170
N1569       N  0.10016329  0.76434261  0.16904644    -0.89410
H1570       H  0.13853928  0.79869333  0.14629340     0.18290
H1571       H  0.06234821  0.85088915  0.19576709     0.18280
N1572       N  0.09872212  0.88540619  0.16953664    -0.88430
H1573       H  0.11843595  0.75687566  0.15912309     0.35660
H1574       H  0.08342924  0.75785624  0.15625634     0.40750
H1575       H  0.09589786  0.89140139  0.14842950     0.40370
H1576       H  0.08119979  0.89290850  0.18071169     0.35260
C1577       C  0.91460637  0.81100621  0.16089859    -0.26470
C1578       C  0.91596553  0.84068931  0.15800882    -0.14540
C1579       C  0.93908429  0.85549329  0.16963403     0.36090
C1580       C  0.95987346  0.84034570  0.18451855    -0.25920
C1581       C  0.95841801  0.81069025  0.18731393    -0.15160
C1582       C  0.93554949  0.79585592  0.17538436     0.37170
N1583       N  0.93325331  0.76557021  0.17868899    -0.89410
H1584       H  0.89667860  0.79961592  0.15243345     0.18290
H1585       H  0.97759567  0.85165145  0.19352366     0.18280
N1586       N  0.94156846  0.88570750  0.16596047    -0.88430
H1587       H  0.91526584  0.75792211  0.16850194     0.35660
H1588       H  0.93055049  0.76135599  0.20025381     0.40750
H1589       H  0.94392482  0.88965725  0.14431102     0.40370
H1590       H  0.95978063  0.89329665  0.17578116     0.35260
C1591       C  0.94231209  0.69130839  0.30515188    -0.26470
C1592       C  0.91449409  0.70076591  0.30207444    -0.14540
C1593       C  0.90865401  0.72479509  0.28527257     0.36090
C1594       C  0.93092208  0.73900547  0.27172323    -0.25920
C1595       C  0.95869193  0.72938793  0.27455330    -0.15160
C1596       C  0.96459563  0.70557912  0.29160497     0.37170
N1597       N  0.99314013  0.69605796  0.29501941    -0.89410
H1598       H  0.94658359  0.67288761  0.31821737     0.18290
H1599       H  0.92660086  0.75729995  0.25848889     0.18280
N1600       N  0.88010860  0.73444970  0.28192901    -0.88430
H1601       H  0.99390033  0.67821095  0.30817644     0.35660
H1602       H  0.00424688  0.71215432  0.30536571     0.40750
H1603       H  0.86899967  0.71853532  0.27131307     0.40370
H1604       H  0.87943100  0.75247659  0.26901270     0.35260
C1605       C  0.83807720  0.62570745  0.27169238    -0.26470
C1606       C  0.84212691  0.62391792  0.30109173    -0.14540
C1607       C  0.83158993  0.60005796  0.31589634     0.36090
C1608       C  0.81636064  0.57917223  0.30116226    -0.25920
C1609       C  0.81230928  0.58112742  0.27184692    -0.15160
C1610       C  0.82336570  0.60454528  0.25691068     0.37170
N1611       N  0.81896049  0.60712235  0.22692410    -0.89410
H1612       H  0.84574018  0.64412740  0.26028955     0.18290
H1613       H  0.80813091  0.56093909  0.31248223     0.18280
N1614       N  0.83672732  0.59692274  0.34570010    -0.88430
H1615       H  0.82853211  0.62554412  0.21912492     0.35660
H1616       H  0.79731758  0.60946908  0.22357626     0.40750
H1617       H  0.85847234  0.59481773  0.34846125     0.40370
H1618       H  0.82757623  0.57822029  0.35334326     0.35260
C1619       C  0.83860505  0.72134289  0.42246857    -0.26470
C1620       C  0.81047711  0.72933117  0.41811233    -0.14540
C1621       C  0.79699302  0.72188298  0.39247811     0.36090
C1622       C  0.81197932  0.70662773  0.37202673    -0.25920
C1623       C  0.84010824  0.69858352  0.37629383    -0.15160
C1624       C  0.85351034  0.70571624  0.40209983     0.37170
N1625       N  0.88157774  0.69653456  0.40894593    -0.89410
H1626       H  0.84883268  0.72654979  0.44228711     0.18290
H1627       H  0.80172824  0.70170144  0.35214902     0.18280
N1628       N  0.76873489  0.73051915  0.38573768    -0.88430
H1629       H  0.89447852  0.71451676  0.40940367     0.35660
H1630       H  0.88977321  0.68267450  0.39380614     0.40750
H1631       H  0.76018794  0.74381637  0.40112113     0.40370
H1632       H  0.75625107  0.71225043  0.38496761     0.35260
C1633       C  0.20151123  0.59754766  0.64777556    -0.26470
C1634       C  0.19805371  0.62398795  0.66097911    -0.14540
C1635       C  0.20876012  0.62825252  0.68848024     0.36090
C1636       C  0.22221058  0.60574003  0.70245645    -0.25920
C1637       C  0.22576623  0.57934177  0.68925527    -0.15160
C1638       C  0.21501134  0.57501073  0.66163587     0.37170
N1639       N  0.21689720  0.54815327  0.64720647    -0.89410
H1640       H  0.19329392  0.59428262  0.62664782     0.18290
H1641       H  0.23069325  0.60901046  0.72348298     0.18280
N1642       N  0.20652801  0.65563311  0.70178884    -0.88430
H1643       H  0.19635069  0.54114504  0.64343591     0.35660
H1644       H  0.22623377  0.53258735  0.65977357     0.40750
H1645       H  0.21841992  0.66996482  0.68979978     0.40370
H1646       H  0.21550246  0.65521130  0.72196554     0.35260
C1647       C  0.18417419  0.70772754  0.56105692    -0.26470
C1648       C  0.19955593  0.69626989  0.58378100    -0.14540
C1649       C  0.22918244  0.69985231  0.58432502     0.36090
C1650       C  0.24264341  0.71396869  0.56192921    -0.25920
C1651       C  0.22720951  0.72588245  0.53967045    -0.15160
C1652       C  0.19767755  0.72270419  0.53910222     0.37170
N1653       N  0.18158876  0.73439209  0.51613854    -0.89410
H1654       H  0.16152177  0.70500823  0.56044793     0.18290
H1655       H  0.26530974  0.71672122  0.56242277     0.18280
N1656       N  0.24545234  0.69018327  0.60809646    -0.88430
H1657       H  0.16011995  0.73032227  0.51899268     0.35660
H1658       H  0.18765455  0.72379726  0.49765169     0.40750
H1659       H  0.23912118  0.70195755  0.62576456     0.40370
H1660       H  0.26687416  0.69437783  0.60507302     0.35260
C1661       C  0.60243006  0.20967332  0.64441599    -0.26470
C1662       C  0.62393262  0.19667243  0.66020778    -0.14540
C1663       C  0.62324750  0.19880658  0.69009174     0.36090
C1664       C  0.60080026  0.21307800  0.70332534    -0.25920
C1665       C  0.57977036  0.22663952  0.68749740    -0.15160
C1666       C  0.58069521  0.22510201  0.65764515     0.37170
N1667       N  0.55928681  0.23854088  0.64083018    -0.89410
H1668       H  0.60276253  0.20805560  0.62155296     0.18290
H1669       H  0.60030680  0.21458664  0.72620365     0.18280
N1670       N  0.64579384  0.18741633  0.70692067    -0.88430
H1671       H  0.56180276  0.23335377  0.61946522     0.35660
H1672       H  0.56236635  0.26047736  0.64217146     0.40750
H1673       H  0.66407164  0.19874846  0.70189964     0.40370
H1674       H  0.64198945  0.19071990  0.72847079     0.35260
C1675       C  0.68586079  0.20311459  0.56018268    -0.26470
C1676       C  0.69948073  0.19935145  0.58620166    -0.14540
C1677       C  0.72709616  0.20968778  0.58989836     0.36090
C1678       C  0.74074933  0.22324918  0.56725540    -0.25920
C1679       C  0.72717192  0.22705464  0.54122438    -0.15160
C1680       C  0.69945323  0.21656782  0.53745772     0.37170
N1681       N  0.68471096  0.21857789  0.51095434    -0.89410
H1682       H  0.66469339  0.19498614  0.55733539     0.18290
H1683       H  0.76189930  0.23144593  0.57007524     0.18280
N1684       N  0.74094724  0.20670314  0.61676158    -0.88430
H1685       H  0.68068322  0.19787794  0.50403599     0.35660
H1686       H  0.69705162  0.22794621  0.49523721     0.40750
H1687       H  0.72955402  0.21858638  0.63157646     0.40370
H1688       H  0.76116970  0.21546371  0.61597216     0.35260
C1689       C  0.70166057  0.62436353  0.18897527    -0.26470
C1690       C  0.69869780  0.62313862  0.15942810    -0.14540
C1691       C  0.71016454  0.59977111  0.14454337     0.36090
C1692       C  0.72492367  0.57860962  0.15948381    -0.25920
C1693       C  0.72768935  0.57991346  0.18901246    -0.15160
C1694       C  0.71595058  0.60304510  0.20391123     0.37170
N1695       N  0.71923413  0.60520749  0.23408223    -0.89410
H1696       H  0.69339316  0.64247879  0.20044943     0.18290
H1697       H  0.73379746  0.56070172  0.14813510     0.20120
N1698       N  0.70641935  0.59738498  0.11446685    -0.88430
H1699       H  0.70918619  0.62340801  0.24181394     0.35660
H1700       H  0.74071289  0.60770728  0.23825094     0.40750
H1701       H  0.68485066  0.59515522  0.11065381     0.40370
H1702       H  0.71612151  0.57897021  0.10679614     0.35260
C1703       C  0.60324451  0.71773495  0.20309012    -0.26470
C1704       C  0.58025192  0.72771696  0.18743746    -0.14540
C1705       C  0.57933417  0.72298478  0.15800729     0.36090
C1706       C  0.60172408  0.70862494  0.14471329    -0.25920
C1707       C  0.62492509  0.69884577  0.16032245    -0.15160
C1708       C  0.62586080  0.70383664  0.18981436     0.37170
N1709       N  0.65010906  0.69553218  0.20603702    -0.89410
H1710       H  0.60393895  0.72158054  0.22567921     0.18290
H1711       H  0.60094142  0.70472069  0.12213560     0.18280
N1712       N  0.55529279  0.73199272  0.14194369    -0.88430
H1713       H  0.64742571  0.70076214  0.22737540     0.35660
H1714       H  0.66726915  0.70738095  0.19872209     0.40750
H1715       H  0.53818969  0.71991642  0.14896568     0.40370
H1716       H  0.55801032  0.72716557  0.12051471     0.35260
C1717       C  0.84003018  0.12325967  0.77139631    -0.26470
C1718       C  0.84146166  0.12216051  0.80100876    -0.14540
C1719       C  0.82800592  0.09972731  0.81549082     0.36090
C1720       C  0.81279253  0.07936973  0.80000146    -0.25920
C1721       C  0.81109459  0.08068681  0.77032922    -0.15160
C1722       C  0.82483000  0.10323668  0.75583974     0.37170
N1723       N  0.82332001  0.10734606  0.72567966    -0.89410
H1724       H  0.84985558  0.14071605  0.76013425     0.18290
H1725       H  0.80261327  0.06203167  0.81112209     0.18280
N1726       N  0.83013842  0.09750406  0.84574535    -0.88430
H1727       H  0.81505728  0.12762889  0.72208729     0.35660
H1728       H  0.80922218  0.09353123  0.71605980     0.40750
H1729       H  0.85133492  0.09409581  0.85065557     0.40370
H1730       H  0.81906772  0.07976943  0.85310871     0.35260
C1731       C  0.70558149  0.07165431  0.66787706    -0.26470
C1732       C  0.72790263  0.07883794  0.68588030    -0.14540
C1733       C  0.73523618  0.10750112  0.68977921     0.36090
C1734       C  0.72044411  0.12858215  0.67505157    -0.25920
C1735       C  0.69811082  0.12156135  0.65701903    -0.15160
C1736       C  0.69052136  0.09272768  0.65327945     0.37170
N1737       N  0.66782034  0.08409088  0.63512120    -0.89410
H1738       H  0.69979808  0.04954332  0.66520904     0.18290
H1739       H  0.72605275  0.15071605  0.67792986     0.18280
N1740       N  0.75752493  0.11505851  0.70885220    -0.88430
H1741       H  0.67647148  0.07172960  0.61890523     0.35660
H1742       H  0.65820734  0.10146465  0.62538860     0.40750
H1743       H  0.75126089  0.10921119  0.72926040     0.40370
H1744       H  0.76042800  0.13707461  0.70916179     0.35260
C1745       C  0.08034698  0.83963029  0.77506460    -0.26470
C1746       C  0.08038019  0.80983140  0.77409997    -0.14540
C1747       C  0.10243290  0.79471469  0.78736409     0.36090
C1748       C  0.12429113  0.80978558  0.80054750    -0.25920
C1749       C  0.12426142  0.83961393  0.80169513    -0.15160
C1750       C  0.10168074  0.85467592  0.78921194     0.37170
N1751       N  0.10023364  0.88511536  0.79127590    -0.89410
H1752       H  0.06326928  0.85121838  0.76516797     0.18290
H1753       H  0.14167962  0.79809140  0.80972045     0.18280
N1754       N  0.10326934  0.76418649  0.78645282    -0.88430
H1755       H  0.08237309  0.89287268  0.78092435     0.35660
H1756       H  0.09788144  0.89026896  0.81267006     0.40750
H1757       H  0.08730708  0.75669202  0.79976682     0.40370
H1758       H  0.12213188  0.75659934  0.79499133     0.35260
C1759       C  0.10222877  0.74292319  0.67686912    -0.26470
C1760       C  0.08025419  0.72686046  0.68865007    -0.14540
C1761       C  0.08037950  0.69704195  0.68547230     0.36090
C1762       C  0.10240772  0.68405514  0.67030673    -0.25920
C1763       C  0.12481212  0.70005083  0.65907365    -0.15160
C1764       C  0.12483389  0.72986497  0.66274224     0.37170
N1765       N  0.14818087  0.74671944  0.65299480    -0.89410
H1766       H  0.10225822  0.76578344  0.67959390     0.18290
H1767       H  0.10223275  0.66122044  0.66744295     0.18280
N1768       N  0.05784259  0.68011088  0.69687356    -0.88430
H1769       H  0.14481812  0.76824854  0.65729273     0.35660
H1770       H  0.16592921  0.74062333  0.66456235     0.40750
H1771       H  0.05983485  0.68020444  0.71888453     0.40370
H1772       H  0.06003489  0.65890140  0.69067241     0.35260
C1773       C  0.81472930  0.84015701  0.03950964    -0.26470
C1774       C  0.81335773  0.81038139  0.04021058    -0.14540
C1775       C  0.82688319  0.79549838  0.06223578     0.36090
C1776       C  0.84092047  0.81074246  0.08343012    -0.25920
C1777       C  0.84226248  0.84057645  0.08294094    -0.15160
C1778       C  0.82952424  0.85540880  0.06030452     0.37170
N1779       N  0.83200120  0.88577442  0.05824707    -0.89410
H1780       H  0.80468141  0.85152021  0.02232508     0.18290
H1781       H  0.85024838  0.79919998  0.10089020     0.18280
N1782       N  0.82570211  0.76500097  0.06345955    -0.88430
H1783       H  0.82145699  0.89334164  0.04036271     0.35660
H1784       H  0.85332578  0.89054007  0.05537776     0.40750
H1785       H  0.80469679  0.75928010  0.06676419     0.40370
H1786       H  0.83699159  0.75735232  0.08084405     0.35260
C1787       C  0.68837476  0.69989381  0.05958243    -0.26470
C1788       C  0.70019614  0.70030851  0.08676035    -0.14540
C1789       C  0.72570821  0.71514666  0.09141866     0.36090
C1790       C  0.73909394  0.72837998  0.06855542    -0.25920
C1791       C  0.72736879  0.72792445  0.04141422    -0.15160
C1792       C  0.70166656  0.71346370  0.03674930     0.37170
N1793       N  0.68863451  0.71181167  0.00934256    -0.89410
H1794       H  0.66876459  0.68866469  0.05603543     0.18290
H1795       H  0.75864223  0.73963649  0.07216343     0.18280
N1796       N  0.73847895  0.71760746  0.11890469    -0.88430
H1797       H  0.68831491  0.69042570  0.00337483     0.35660
H1798       H  0.70031043  0.72246170  0.99392095     0.40750
H1799       H  0.72646488  0.70787154  0.13464238     0.40370
H1800       H  0.73904298  0.73919657  0.12408372     0.35260
C1801       C  0.93685836  0.82929840  0.81575213    -0.26470
C1802       C  0.91506516  0.84197323  0.80001455    -0.14540
C1803       C  0.91562066  0.83968167  0.77012831     0.36090
C1804       C  0.93811727  0.82551821  0.75687041    -0.25920
C1805       C  0.95937580  0.81232949  0.77268743    -0.15160
C1806       C  0.95879695  0.81424576  0.80245444     0.37170
N1807       N  0.98061043  0.80119038  0.81904934    -0.89410
H1808       H  0.93680222  0.83115396  0.83859479     0.18290
H1809       H  0.93845859  0.82375453  0.73400843     0.18280
N1810       N  0.89289425  0.85072780  0.75332244    -0.88430
H1811       H  0.97692133  0.80433004  0.84064394     0.35660
H1812       H  0.99953279  0.81151296  0.81427412     0.40750
H1813       H  0.87476171  0.83921808  0.75846765     0.40370
H1814       H  0.89665957  0.84737557  0.73177354     0.35260
C1815       C  0.83902533  0.96296911  0.77989952    -0.26470
C1816       C  0.81015119  0.95955412  0.77465184    -0.14540
C1817       C  0.79608955  0.93535622  0.78510831     0.36090
C1818       C  0.81153400  0.91443886  0.79943274    -0.25920
C1819       C  0.84049084  0.91767045  0.80474964    -0.15160
C1820       C  0.85420122  0.94281838  0.79554798     0.37170
N1821       N  0.88290400  0.94932549  0.80266829    -0.89410
H1822       H  0.84969465  0.98194645  0.77253062     0.18290
H1823       H  0.80091807  0.89519700  0.80612565     0.18280
N1824       N  0.76646632  0.93146760  0.78011983    -0.88430
H1825       H  0.89495924  0.94780091  0.78419292     0.35660
H1826       H  0.89111389  0.93513727  0.81746976     0.40750
H1827       H  0.75564067  0.94642910  0.79233382     0.40370
H1828       H  0.75987271  0.91156277  0.78738086     0.35260
C1829       C  0.83728076  0.81029450  0.87428211    -0.26470
C1830       C  0.84177832  0.83972219  0.87660083    -0.14540
C1831       C  0.83200191  0.85415359  0.90097293     0.36090
C1832       C  0.81701277  0.83907161  0.92179514    -0.25920
C1833       C  0.81255054  0.80974536  0.91931230    -0.15160
C1834       C  0.82291721  0.79513697  0.89543881     0.37170
N1835       N  0.81814571  0.76512619  0.89240726    -0.89410
H1836       H  0.84434444  0.79916057  0.85550392     0.18290
H1837       H  0.80928072  0.85011751  0.94037773     0.18280
N1838       N  0.83767604  0.88391518  0.90470179    -0.88430
H1839       H  0.82725605  0.75758597  0.87369052     0.35660
H1840       H  0.79642306  0.76199115  0.89053348     0.40750
H1841       H  0.85950165  0.88633342  0.90634373     0.40370
H1842       H  0.82902466  0.89124759  0.92371719     0.35260
C1843       C  0.94373373  0.69315063  0.65297176    -0.26470
C1844       C  0.91565436  0.69952149  0.65966531    -0.14540
C1845       C  0.90951274  0.72018665  0.68032924     0.36090
C1846       C  0.93170516  0.73405364  0.69416477    -0.25920
C1847       C  0.95979521  0.72775176  0.68755373    -0.15160
C1848       C  0.96600609  0.70696263  0.66678129     0.37170
N1849       N  0.99439755  0.69947429  0.65906490    -0.89410
H1850       H  0.94834741  0.67730593  0.63698184     0.18290
H1851       H  0.92711550  0.74990082  0.71017083     0.18280
N1852       N  0.88072792  0.72682545  0.68723193    -0.88430
H1853       H  0.99751063  0.67821124  0.66466439     0.35660
H1854       H  0.00922032  0.71128997  0.67028453     0.40750
H1855       H  0.87153076  0.73591370  0.66930891     0.40370
H1856       H  0.87981955  0.74220390  0.70316770     0.35260
C1857       C  0.85468354  0.60362603  0.67041822    -0.26470
C1858       C  0.83910443  0.62701967  0.66058622    -0.14540
C1859       C  0.80968001  0.62778146  0.66533104     0.36090
C1860       C  0.79645977  0.60470187  0.67871417    -0.25920
C1861       C  0.81209081  0.58152464  0.68873817    -0.15160
C1862       C  0.84158374  0.58108592  0.68486638     0.37170
N1863       N  0.85801935  0.55742375  0.69473109    -0.89410
H1864       H  0.87722876  0.60296209  0.66681463     0.18290
H1865       H  0.77387500  0.60518405  0.68215878     0.18280
N1866       N  0.79342955  0.65226849  0.65729508    -0.88430
H1867       H  0.87903469  0.55952203  0.68840036     0.35660
H1868       H  0.85810550  0.55812287  0.71682896     0.40750
H1869       H  0.80048360  0.66942797  0.66940107     0.40370
H1870       H  0.77215719  0.64940666  0.66231736     0.35260
C1871       C  0.83048302  0.68492392  0.56215569    -0.26470
C1872       C  0.84294361  0.70089294  0.58393910    -0.14540
C1873       C  0.84068682  0.73089633  0.58322258     0.36090
C1874       C  0.82679308  0.74407475  0.56055609    -0.25920
C1875       C  0.81379967  0.72807877  0.53928117    -0.15160
C1876       C  0.81571414  0.69816569  0.53999300     0.37170
N1877       N  0.80285522  0.68137023  0.51815417    -0.89410
H1878       H  0.83222524  0.66198011  0.56245096     0.18290
H1879       H  0.82496769  0.76702231  0.56018843     0.18280
N1880       N  0.85140189  0.74789947  0.60606166    -0.88430
H1881       H  0.80597341  0.65971137  0.52195282     0.35660
H1882       H  0.81316464  0.68604297  0.49914055     0.40750
H1883       H  0.83972064  0.74290756  0.62416971     0.40370
H1884       H  0.84817432  0.76952131  0.60215091     0.35260
C1885       C  0.71927199  0.90776716  0.67791637    -0.26470
C1886       C  0.69793546  0.91515893  0.65885778    -0.14540
C1887       C  0.69144179  0.94412246  0.65423057     0.36090
C1888       C  0.70624760  0.96493903  0.66932942    -0.25920
C1889       C  0.72753223  0.95746292  0.68847135    -0.15160
C1890       C  0.73426460  0.92851340  0.69273085     0.37170
N1891       N  0.75619010  0.91933076  0.71160014    -0.89410
H1892       H  0.72436144  0.88556205  0.68127556     0.18290
H1893       H  0.70122402  0.98715722  0.66596109     0.18280
N1894       N  0.67006780  0.95316410  0.63466767    -0.88430
H1895       H  0.74671140  0.90760405  0.72781671     0.35660
H1896       H  0.76641754  0.93640368  0.72115121     0.40750
H1897       H  0.66038037  0.93595316  0.62475855     0.40370
H1898       H  0.68000538  0.96487644  0.61871615     0.35260
C1899       C  0.59936388  0.85394002  0.66597011    -0.26470
C1900       C  0.62482686  0.83970815  0.66059136    -0.14540
C1901       C  0.62812266  0.81122077  0.66985313     0.36090
C1902       C  0.60560265  0.79754754  0.68326572    -0.25920
C1903       C  0.58037016  0.81188585  0.68891991    -0.15160
C1904       C  0.57711995  0.84037337  0.68029703     0.37170
N1905       N  0.55095013  0.85501305  0.68515078    -0.89410
H1906       H  0.59684276  0.87568060  0.65885199     0.18290
H1907       H  0.60823156  0.77579679  0.69035608     0.18280
N1908       N  0.65426274  0.79592818  0.66743639    -0.88430
H1909       H  0.55154551  0.87531197  0.67617878     0.35660
H1910       H  0.54876708  0.85798125  0.70695307     0.40750
H1911       H  0.67093825  0.80890935  0.66119300     0.40370
H1912       H  0.65166035  0.78021729  0.65203493     0.35260
C1913       C  0.70191130  0.81134508  0.58639827    -0.26470
C1914       C  0.69715591  0.84071847  0.58400867    -0.14540
C1915       C  0.70727914  0.85535063  0.55994624     0.36090
C1916       C  0.72260881  0.84041168  0.53924881    -0.25920
C1917       C  0.72722054  0.81107650  0.54172723    -0.15160
C1918       C  0.71677658  0.79636546  0.56550010     0.37170
N1919       N  0.72194038  0.76642518  0.56867468    -0.89410
H1920       H  0.69460798  0.80013216  0.60504832     0.18290
H1921       H  0.73047559  0.85156221  0.52079168     0.18280
N1922       N  0.70161853  0.88514827  0.55643557    -0.88430
H1923       H  0.71275348  0.75881056  0.58732521     0.35660
H1924       H  0.74368516  0.76358519  0.57078346     0.40750
H1925       H  0.67981425  0.88759176  0.55452147     0.40370
H1926       H  0.71050513  0.89264506  0.53759231     0.35260
C1927       C  0.70758591  0.68464546  0.89795408    -0.26470
C1928       C  0.69874566  0.70061203  0.87451777    -0.14540
C1929       C  0.70356230  0.73020535  0.87410405     0.36090
C1930       C  0.71685794  0.74315300  0.89724008    -0.25920
C1931       C  0.72598045  0.72717916  0.92055477    -0.15160
C1932       C  0.72070482  0.69751324  0.92120929     0.37170
N1933       N  0.72757292  0.67985966  0.94510738    -0.89410
H1934       H  0.70367203  0.66196435  0.89847682     0.18290
H1935       H  0.72100788  0.76578808  0.89665453     0.18280
N1936       N  0.69572121  0.74686861  0.84985625    -0.88430
H1937       H  0.70888326  0.67042296  0.95212733     0.35660
H1938       H  0.73472360  0.69174361  0.96223045     0.40750
H1939       H  0.70785515  0.73989286  0.83272135     0.40370
H1940       H  0.70070457  0.76827418  0.85295999     0.35260
C1941       C  0.59794581  0.70124653  0.81372458    -0.26470
C1942       C  0.62428692  0.69857792  0.80047504    -0.14540
C1943       C  0.62865525  0.71067789  0.77350293     0.36090
C1944       C  0.60636344  0.72483028  0.76004697    -0.25920
C1945       C  0.58009750  0.72762617  0.77331823    -0.15160
C1946       C  0.57564428  0.71550690  0.80022473     0.37170
N1947       N  0.54840358  0.71726546  0.81339545    -0.89410
H1948       H  0.59476084  0.69193003  0.83445553     0.18290
H1949       H  0.60960327  0.73422101  0.73934639     0.18280
N1950       N  0.65587622  0.70895497  0.76017383    -0.88430
H1951       H  0.54863005  0.70730842  0.83317573     0.35660
H1952       H  0.53435217  0.70577053  0.80082231     0.40750
H1953       H  0.67006492  0.72035334  0.77267522     0.40370
H1954       H  0.65556681  0.71892436  0.74040092     0.35260
C1955       C  0.70394548  0.62668525  0.77078163    -0.26470
C1956       C  0.69946959  0.62462157  0.80011128    -0.14540
C1957       C  0.70827626  0.59969629  0.81441320     0.36090
C1958       C  0.72216114  0.57819286  0.79936971    -0.25920
C1959       C  0.72662586  0.58038985  0.77010220    -0.15160
C1960       C  0.71701560  0.60470289  0.75554339     0.37170
N1961       N  0.72151190  0.60752835  0.72556820    -0.89410
H1962       H  0.69725502  0.64566716  0.75968228     0.18290
H1963       H  0.72907881  0.55933621  0.81055289     0.18280
N1964       N  0.70226998  0.59491144  0.84376119    -0.88430
H1965       H  0.71503531  0.62756632  0.71856713     0.35660
H1966       H  0.70840102  0.59289092  0.71547822     0.40750
H1967       H  0.68065386  0.59759886  0.84710516     0.40370
H1968       H  0.71324488  0.60958572  0.85602608     0.35260
loop_ 
_geom_bond_atom_site_label_1 
_geom_bond_atom_site_label_2 
_geom_bond_distance 
_geom_bond_site_symmetry_2 
_ccdc_geom_bond_type 
C1            C2   1.405       .  A
C1            C6   1.405       .  A
C1         C1956   1.487       .  S
C2            C3   1.402       .  A
C2            H7   1.084       .  S
C3            C4   1.399       .  A
C3         C1942   1.477       .  S
C4            C5   1.404       .  A
C4            H8   1.084       .  S
C5            C6   1.405       .  A
C5         C1928   1.484       .  S
C6            H9   1.082       .  S
C10          C11   1.405       .  A
C10          C15   1.405       .  A
C10        C1914   1.485       .  S
C11          C12   1.403       .  A
C11          H16   1.084       .  S
C12          C13   1.401       .  A
C12        C1900   1.480       .  S
C13          C14   1.400       .  A
C13          H17   1.084       .  S
C14          C15   1.401       .  A
C14        C1886   1.472       .  S
C15          H18   1.084       .  S
C19          C20   1.407       .  A
C19          C24   1.405       .  A
C19        C1858   1.489       .  S
C20          C21   1.407       .  A
C20          H25   1.083       .  S
C21          C22   1.406       .  A
C21        C1872   1.492       .  S
C22          C23   1.399       .  A
C22          H26   1.083       .  S
C23          C24   1.400       .  A
C23        C1844   1.474       .  S
C24          H27   1.084       .  S
C28          C29   1.405       .  A
C28          C33   1.403       .  A
C28        C1830   1.489       .  S
C29          C30   1.406       .  A
C29          H34   1.083       .  S
C30          C31   1.407       .  A
C30        C1802   1.494       .  S
C31          C32   1.405       .  A
C31          H35   1.082       .  S
C32          C33   1.403       .  A
C32        C1819   1.487       .  S
C33          H36   1.083       .  S
O37         Ni45   1.916   1_554  S
O37          C47   1.281       .  A
O38         Ni45   1.917       .  S
O38          C48   1.281       .  A
O39         Ni45   1.919   1_554  S
O39          C49   1.281       .  A
O40         Ni45   1.915       .  S
O40          C50   1.281       .  A
O41         Ni46   1.916       .  S
O41          C50   1.281       .  A
O42         Ni46   1.914   1_554  S
O42          C49   1.280       .  A
O43         Ni46   1.915       .  S
O43          C48   1.281       .  A
O44         Ni46   1.916   1_554  S
O44          C47   1.281       .  A
Ni45        Ni46   2.391       .  S
C47        C1774   1.478       .  S
C48        C1931   1.476       .  S
C49        C1791   1.468       .  S
C50        C1833   1.474       .  S
O51         Ni59   1.914       .  S
O51          C61   1.280       .  A
O52         Ni59   1.914   1_655  S
O52          C62   1.279       .  A
O53         Ni59   1.918       .  S
O53          C63   1.281       .  A
O54         Ni59   1.920   1_655  S
O54          C64   1.282       .  A
O55         Ni60   1.913   1_655  S
O55          C64   1.281       .  A
O56         Ni60   1.914       .  S
O56          C63   1.281       .  A
O57         Ni60   1.919   1_655  S
O57          C62   1.281       .  A
O58         Ni60   1.920       .  S
O58          C61   1.282       .  A
Ni59        Ni60   2.389       .  S
C61        C1746   1.481       .  S
C62        C1847   1.467       .  S
C63        C1760   1.478       .  S
C64        C1805   1.478       .  S
O65         Ni73   1.913   1_565  S
O65          C75   1.280       .  A
O66         Ni73   1.912       .  S
O66          C76   1.279       .  A
O67         Ni73   1.918   1_565  S
O67          C77   1.280       .  A
O68         Ni73   1.922       .  S
O68          C78   1.283       .  A
O69         Ni74   1.909       .  S
O69          C78   1.279       .  A
O70         Ni74   1.914   1_565  S
O70          C77   1.279       .  A
O71         Ni74   1.922       .  S
O71          C76   1.282       .  A
O72         Ni74   1.919   1_565  S
O72          C75   1.281       .  A
Ni73        Ni74   2.392       .  S
C75        C1816   1.475       .  S
C76        C1732   1.467       .  S
C77        C1889   1.466       .  S
C78        C1721   1.479       .  S
C79          C80   1.405       .  A
C79          C84   1.406       .  A
C79        C1690   1.488       .  S
C80          C81   1.403       .  A
C80          H85   1.083       .  S
C81          C82   1.400       .  A
C81        C1788   1.475       .  S
C82          C83   1.403       .  A
C82          H86   1.084       .  S
C83          C84   1.404       .  A
C83        C1707   1.485       .  S
C84          H87   1.084       .  S
C88          C89   1.398       .  A
C88          C93   1.401       .  A
C88        C1735   1.473       .  S
C89          C90   1.400       .  A
C89          H94   1.084       .  S
C90          C91   1.403       .  A
C90        C1676   1.477       .  S
C91          C92   1.409       .  A
C91          H95   1.084       .  S
C92          C93   1.408       .  A
C92        C1662   1.492       .  S
C93          H96   1.083       .  S
C97          C98   1.407       .  A
C97         C102   1.406       .  A
C97        C1648   1.491       .  S
C98          C99   1.407       .  A
C98         H103   1.082       .  S
C99         C100   1.403       .  A
C99        C1763   1.489       .  S
C100        C101   1.400       .  A
C100        H104   1.084       .  S
C101        C102   1.400       .  A
C101       C1634   1.479       .  S
C102        H105   1.083       .  S
C106        C107   1.406       .  A
C106        C111   1.407       .  A
C106       C1606   1.488       .  S
C107        C108   1.404       .  A
C107        H112   1.083       .  S
C108        C109   1.402       .  A
C108       C1623   1.480       .  S
C109        C110   1.399       .  A
C109        H113   1.084       .  S
C110        C111   1.402       .  A
C110       C1592   1.473       .  S
C111        H114   1.084       .  S
O115       Ni123   1.916       .  S
O115        C125   1.281       .  A
O116       Ni123   1.920   1_655  S
O116        C126   1.281       .  A
O117       Ni123   1.919       .  S
O117        C127   1.283       .  A
O118       Ni123   1.915   1_655  S
O118        C128   1.281       .  A
O119       Ni124   1.916   1_655  S
O119        C128   1.281       .  A
O120       Ni124   1.914       .  S
O120        C127   1.280       .  A
O121       Ni124   1.915   1_655  S
O121        C126   1.280       .  A
O122       Ni124   1.919       .  S
O122        C125   1.281       .  A
Ni123      Ni124   2.389       .  S
C125       C1567   1.483       .  S
C126       C1595   1.468       .  S
C127       C1550   1.481       .  S
C128       C1581   1.476       .  S
C129        C130   1.403       .  A
C129        C134   1.403       .  A
C129       C1536   1.480       .  S
C130        C131   1.405       .  A
C130        H135   1.083       .  S
C131        C132   1.405       .  A
C131       C1777   1.490       .  S
C132        C133   1.404       .  A
C132        H136   1.084       .  S
C133        C134   1.403       .  A
C133       C1578   1.487       .  S
C134        H137   1.084       .  S
C138        C139   1.402       .  A
C138        C143   1.401       .  A
C138       C1522   1.481       .  S
C139        C140   1.405       .  A
C139        H144   1.083       .  S
C140        C141   1.405       .  A
C140       C1508   1.488       .  S
C141        C142   1.404       .  A
C141        H145   1.083       .  S
C142        C143   1.404       .  A
C142       C1494   1.481       .  S
C143        H146   1.084       .  S
O147       Ni155   1.916       .  S
O147        C157   1.281       .  A
O148       Ni155   1.915   1_565  S
O148        C158   1.281       .  A
O149       Ni155   1.911       .  S
O149        C159   1.280       .  A
O150       Ni155   1.915   1_565  S
O150        C160   1.281       .  A
O151       Ni156   1.915   1_565  S
O151        C160   1.280       .  A
O152       Ni156   1.920       .  S
O152        C159   1.281       .  A
O153       Ni156   1.915   1_565  S
O153        C158   1.281       .  A
O154       Ni156   1.918       .  S
O154        C157   1.281       .  A
Ni155      Ni156   2.391       .  S
C157       C1466   1.479       .  S
C158       C1497   1.471       .  S
C159       C1480   1.474       .  S
C160       C1539   1.471       .  S
C161        C162   1.404       .  A
C161        C166   1.405       .  A
C161       C1441   1.491       .  S
C162        C163   1.403       .  A
C162        H167   1.083       .  S
C163        C164   1.403       .  A
C163       C1452   1.483       .  S
C164        C165   1.406       .  A
C164        H168   1.083       .  S
C165        C166   1.407       .  A
C165       C1427   1.490       .  S
C166        H169   1.084       .  S
O170       Ni178   1.915       .  S
O170        C180   1.281       .  A
O171       Ni178   1.916   1_565  S
O171        C181   1.281       .  A
O172       Ni178   1.916       .  S
O172        C182   1.280       .  A
O173       Ni178   1.920   1_565  S
O173        C183   1.281       .  A
O174       Ni179   1.913   1_565  S
O174        C183   1.281       .  A
O175       Ni179   1.918       .  S
O175        C182   1.281       .  A
O176       Ni179   1.915   1_565  S
O176        C181   1.281       .  A
O177       Ni179   1.916       .  S
O177        C180   1.280       .  A
Ni178      Ni179   2.389       .  S
C180       C1396   1.479       .  S
C181       C1410   1.476       .  S
C182       C1382   1.474       .  S
C183       C1424   1.480       .  S
C184        C185   1.404       .  A
C184        C189   1.401       .  A
C184       C1368   1.485       .  S
C185        C186   1.408       .  A
C185        H190   1.083       .  S
C186        C187   1.407       .  A
C186       C1749   1.491       .  S
C187        C188   1.405       .  A
C187        H191   1.083       .  S
C188        C189   1.402       .  A
C188       C1413   1.487       .  S
C189        H192   1.084       .  S
C193        C194   1.400       .  A
C193        C198   1.402       .  A
C193       C1340   1.479       .  S
C194        C195   1.403       .  A
C194        H199   1.084       .  S
C195        C196   1.406       .  A
C195       C1357   1.488       .  S
C196        C197   1.408       .  A
C196        H200   1.084       .  S
C197        C198   1.406       .  A
C197       C1326   1.491       .  S
C198        H201   1.083       .  S
O202       Ni210   1.913   1_554  S
O202        C212   1.280       .  A
O203       Ni210   1.916       .  S
O203        C213   1.281       .  A
O204       Ni210   1.918   1_554  S
O204        C214   1.281       .  A
O205       Ni210   1.915       .  S
O205        C215   1.281       .  A
O206       Ni211   1.921       .  S
O206        C215   1.282       .  A
O207       Ni211   1.913   1_554  S
O207        C214   1.279       .  A
O208       Ni211   1.917       .  S
O208        C213   1.280       .  A
O209       Ni211   1.922   1_554  S
O209        C212   1.283       .  A
Ni210      Ni211   2.390       .  S
C212       C1315   1.481       .  S
C213       C1371   1.473       .  S
C214       C1298   1.467       .  S
C215       C1329   1.480       .  S
C216        C217   1.403       .  A
C216        C221   1.402       .  A
C216       C1259   1.477       .  S
C217        C218   1.401       .  A
C217        H222   1.084       .  S
C218        C219   1.401       .  A
C218       C1284   1.473       .  S
C219        C220   1.401       .  A
C219        H223   1.084       .  S
C220        C221   1.403       .  A
C220       C1270   1.475       .  S
C221        H224   1.084       .  S
O225       Ni233   1.918   1_655  S
O225        C235   1.281       .  A
O226       Ni233   1.916       .  S
O226        C236   1.280       .  A
O227       Ni233   1.914   1_655  S
O227        C237   1.282       .  A
O228       Ni233   1.915       .  S
O228        C238   1.280       .  A
O229       Ni234   1.917       .  S
O229        C238   1.280       .  A
O230       Ni234   1.917   1_655  S
O230        C237   1.281       .  A
O231       Ni234   1.916       .  S
O231        C236   1.281       .  A
O232       Ni234   1.916   1_655  S
O232        C235   1.280       .  A
Ni233      Ni234   2.390       .  S
C235       C1256   1.470       .  S
C236       C1217   1.470       .  S
C237       C1245   1.482       .  S
C238       C1228   1.469       .  S
C239        C240   1.405       .  A
C239        C244   1.403       .  A
C239       C1200   1.485       .  S
C240        C241   1.406       .  A
C240        H245   1.083       .  S
C241        C242   1.405       .  A
C241       C1242   1.493       .  S
C242        C243   1.404       .  A
C242        H246   1.083       .  S
C243        C244   1.403       .  A
C243       C1718   1.485       .  S
C244        H247   1.084       .  S
C248        C249   1.406       .  A
C248        C253   1.404       .  A
C248       C1158   1.490       .  S
C249        C250   1.407       .  A
C249        H254   1.083       .  S
C250        C251   1.407       .  A
C250       C1186   1.490       .  S
C251        C252   1.403       .  A
C251        H255   1.083       .  S
C252        C253   1.402       .  A
C252       C1172   1.487       .  S
C253        H256   1.084       .  S
O257       Ni265   1.914       .  S
O257        C267   1.281       .  A
O258       Ni265   1.920   1_554  S
O258        C268   1.281       .  A
O259       Ni265   1.923       .  S
O259        C269   1.283       .  A
O260       Ni265   1.919   1_554  S
O260        C270   1.282       .  A
O261       Ni266   1.917   1_554  S
O261        C270   1.281       .  A
O262       Ni266   1.910       .  S
O262        C269   1.279       .  A
O263       Ni266   1.915   1_554  S
O263        C268   1.280       .  A
O264       Ni266   1.917       .  S
O264        C267   1.281       .  A
Ni265      Ni266   2.388       .  S
C267       C1161   1.480       .  S
C268       C1133   1.474       .  S
C269       C1203   1.476       .  S
C270       C1144   1.485       .  S
C271        C272   1.407       .  A
C271        C276   1.404       .  A
C271       C1105   1.492       .  S
C272        C273   1.408       .  A
C272        H277   1.083       .  S
C273        C274   1.406       .  A
C273       C1147   1.495       .  S
C274        C275   1.401       .  A
C274        H278   1.083       .  S
C275        C276   1.401       .  A
C275       C1116   1.475       .  S
C276        H279   1.083       .  S
C280        C281   1.412       .  A
C280        C285   1.408       .  A
C280       C1074   1.508       .  S
C281        C282   1.407       .  A
C281        H286   1.079       .  S
C282        C283   1.404       .  A
C282       C1312   1.493       .  S
C283        C284   1.403       .  A
C283        H287   1.083       .  S
C284        C285   1.405       .  A
C284       C1088   1.492       .  S
C285        H288   1.080       .  S
C289        C290   1.402       .  A
C289        C294   1.403       .  A
C289       C1046   1.485       .  S
C290        C291   1.403       .  A
C290        H295   1.084       .  S
C291        C292   1.404       .  A
C291       C1483   1.488       .  S
C292        C293   1.407       .  A
C292        H296   1.083       .  S
C293        C294   1.408       .  A
C293       C1060   1.490       .  S
C294        H297   1.083       .  S
C298        C299   1.406       .  A
C298        C303   1.407       .  A
C298       C1007   1.493       .  S
C299        C300   1.401       .  A
C299        H304   1.083       .  S
C300        C301   1.401       .  A
C300       C1035   1.474       .  S
C301        C302   1.405       .  A
C301        H305   1.083       .  S
C302        C303   1.407       .  A
C302       C1018   1.493       .  S
C303        H306   1.083       .  S
C307        C308   1.398       .  A
C307        C312   1.401       .  A
C307       C1301   1.476       .  S
C308        C309   1.401       .  A
C308        H313   1.084       .  S
C309        C310   1.404       .  A
C309        C990   1.481       .  S
C310        C311   1.409       .  A
C310        H314   1.083       .  S
C311        C312   1.409       .  A
C311       C1564   1.493       .  S
C312        H315   1.083       .  S
C316        C317   1.405       .  A
C316        C321   1.402       .  A
C316        C948   1.483       .  S
C317        C318   1.407       .  A
C317        H322   1.083       .  S
C318        C319   1.408       .  A
C318        C976   1.492       .  S
C319        C320   1.401       .  A
C319        H323   1.084       .  S
C320        C321   1.398       .  A
C320        C962   1.474       .  S
C321        H324   1.084       .  S
O325       Ni333   1.915       .  S
O325        C335   1.281       .  A
O326       Ni333   1.913   1_565  S
O326        C336   1.280       .  A
O327       Ni333   1.921       .  S
O327        C337   1.282       .  A
O328       Ni333   1.916   1_565  S
O328        C338   1.281       .  A
O329       Ni334   1.915   1_565  S
O329        C338   1.281       .  A
O330       Ni334   1.914       .  S
O330        C337   1.280       .  A
O331       Ni334   1.921   1_565  S
O331        C336   1.281       .  A
O332       Ni334   1.919       .  S
O332        C335   1.282       .  A
Ni333      Ni334   2.388       .  S
C335       C1004   1.485       .  S
C336        C993   1.471       .  S
C337        C934   1.483       .  S
C338        C951   1.474       .  S
C339        C340   1.402       .  A
C339        C344   1.402       .  A
C339        C906   1.480       .  S
C340        C341   1.407       .  A
C340        H345   1.083       .  S
C341        C342   1.406       .  A
C341       C1399   1.490       .  S
C342        C343   1.403       .  A
C342        H346   1.084       .  S
C343        C344   1.400       .  A
C343        C923   1.480       .  S
C344        H347   1.084       .  S
C348        C349   1.405       .  A
C348        C353   1.406       .  A
C348        C892   1.488       .  S
C349        C350   1.402       .  A
C349        H354   1.084       .  S
C350        C351   1.401       .  A
C350       C1231   1.479       .  S
C351        C352   1.404       .  A
C351        H355   1.084       .  S
C352        C353   1.405       .  A
C352        C878   1.485       .  S
C353        H356   1.083       .  S
C357        C358   1.400       .  A
C357        C362   1.400       .  A
C357        C836   1.475       .  S
C358        C359   1.407       .  A
C358        H363   1.083       .  S
C359        C360   1.408       .  A
C359        C850   1.492       .  S
C360        C361   1.404       .  A
C360        H364   1.084       .  S
C361        C362   1.403       .  A
C361        C864   1.481       .  S
C362        H365   1.084       .  S
C366        C367   1.407       .  A
C366        C371   1.407       .  A
C366       C1469   1.491       .  S
C367        C368   1.402       .  A
C367        H372   1.083       .  S
C368        C369   1.400       .  A
C368       C1130   1.482       .  S
C369        C370   1.403       .  A
C369        H373   1.084       .  S
C370        C371   1.405       .  A
C370        C822   1.487       .  S
C371        H374   1.083       .  S
C375        C376   1.406       .  A
C375        C380   1.403       .  A
C375        C808   1.491       .  S
C376        C377   1.409       .  A
C376        H381   1.083       .  S
C377        C378   1.407       .  A
C377        C794   1.497       .  S
C378        C379   1.402       .  A
C378        H382   1.082       .  S
C379        C380   1.401       .  A
C379        C780   1.477       .  S
C380        H383   1.083       .  S
O384       Ni392   1.914   1_655  S
O384        C394   1.280       .  A
O385       Ni392   1.918       .  S
O385        C395   1.282       .  A
O386       Ni392   1.912   1_655  S
O386        C396   1.280       .  A
O387       Ni392   1.916       .  S
O387        C397   1.280       .  A
O388       Ni393   1.920       .  S
O388        C397   1.281       .  A
O389       Ni393   1.919   1_655  S
O389        C396   1.282       .  A
O390       Ni393   1.914       .  S
O390        C395   1.280       .  A
O391       Ni393   1.918   1_655  S
O391        C394   1.280       .  A
Ni392      Ni393   2.391       .  S
C394        C783   1.468       .  S
C395        C769   1.475       .  S
C396        C825   1.477       .  S
C397        C839   1.470       .  S
C398        C399   1.402       .  A
C398        C403   1.403       .  A
C398        C755   1.483       .  S
C399        C400   1.405       .  A
C399        H404   1.083       .  S
C400        C401   1.406       .  A
C400       C1553   1.492       .  S
C401        C402   1.405       .  A
C401        H405   1.083       .  S
C402        C403   1.405       .  A
C402        C738   1.487       .  S
C403        H406   1.084       .  S
C407        C408   1.409       .  A
C407        C412   1.407       .  A
C407        C937   1.493       .  S
C408        C409   1.403       .  A
C408        H413   1.083       .  S
C409        C410   1.401       .  A
C409        C766   1.487       .  S
C410        C411   1.403       .  A
C410        H414   1.084       .  S
C411        C412   1.405       .  A
C411        C724   1.489       .  S
C412        H415   1.082       .  S
C416        C417   1.405       .  A
C416        C421   1.408       .  A
C416        C685   1.493       .  S
C417        C418   1.402       .  A
C417        H422   1.083       .  S
C418        C419   1.401       .  A
C418        C713   1.480       .  S
C419        C420   1.405       .  A
C419        H423   1.083       .  S
C420        C421   1.406       .  A
C420        C696   1.491       .  S
C421        H424   1.083       .  S
C425        C426   1.404       .  A
C425        C430   1.405       .  A
C425       C1385   1.484       .  S
C426        C427   1.401       .  A
C426        H431   1.084       .  S
C427        C428   1.402       .  A
C427       C1214   1.479       .  S
C428        C429   1.406       .  A
C428        H432   1.083       .  S
C429        C430   1.406       .  A
C429        C668   1.492       .  S
C430        H433   1.084       .  S
C434        C435   1.402       .  A
C434        C439   1.403       .  A
C434        C640   1.479       .  S
C435        C436   1.400       .  A
C435        H440   1.084       .  S
C436        C437   1.403       .  A
C436        C657   1.479       .  S
C437        C438   1.405       .  A
C437        H441   1.084       .  S
C438        C439   1.406       .  A
C438        C626   1.488       .  S
C439        H442   1.083       .  S
O443       Ni451   1.914       .  S
O443        C453   1.281       .  A
O444       Ni451   1.910   1_554  S
O444        C454   1.279       .  A
O445       Ni451   1.916       .  S
O445        C455   1.281       .  A
O446       Ni451   1.915   1_554  S
O446        C456   1.281       .  A
O447       Ni452   1.915   1_554  S
O447        C456   1.281       .  A
O448       Ni452   1.916       .  S
O448        C455   1.281       .  A
O449       Ni452   1.922   1_554  S
O449        C454   1.283       .  A
O450       Ni452   1.918       .  S
O450        C453   1.281       .  A
Ni451      Ni452   2.388       .  S
C453        C671   1.478       .  S
C454        C682   1.479       .  S
C455        C629   1.476       .  S
C456        C727   1.478       .  S
O457       Ni465   1.912       .  S
O457        C467   1.280       .  A
O458       Ni465   1.911       .  S
O458        C468   1.279       .  A
O459       Ni465   1.917       .  S
O459        C469   1.281       .  A
O460       Ni465   1.920       .  S
O460        C470   1.284       .  A
O461       Ni466   1.911       .  S
O461        C470   1.279       .  A
O462       Ni466   1.918       .  S
O462        C469   1.281       .  A
O463       Ni466   1.925       .  S
O463        C468   1.283       .  A
O464       Ni466   1.917       .  S
O464        C467   1.281       .  A
Ni465      Ni466   2.388       .  S
C467        C699   1.476       .  S
C468        C741   1.477       .  S
C469        C867   1.473       .  S
C470       C1077   1.486       .  S
O471       Ni479   1.915       .  S
O471        C481   1.281       .  A
O472       Ni479   1.914       .  S
O472        C482   1.281       .  A
O473       Ni479   1.911       .  S
O473        C483   1.280       .  A
O474       Ni479   1.912       .  S
O474        C484   1.280       .  A
O475       Ni480   1.925       .  S
O475        C484   1.283       .  A
O476       Ni480   1.922       .  S
O476        C483   1.283       .  A
O477       Ni480   1.917       .  S
O477        C482   1.281       .  A
O478       Ni480   1.917       .  S
O478        C481   1.280       .  A
Ni479      Ni480   2.390       .  S
C481        C710   1.470       .  S
C482       C1049   1.472       .  S
C483       C1021   1.483       .  S
C484       C1102   1.481       .  S
O485       Ni493   1.914       .  S
O485        C495   1.280       .  A
O486       Ni493   1.920       .  S
O486        C496   1.282       .  A
O487       Ni493   1.914       .  S
O487        C497   1.281       .  A
O488       Ni493   1.919       .  S
O488        C498   1.281       .  A
O489       Ni494   1.916       .  S
O489        C498   1.280       .  A
O490       Ni494   1.918       .  S
O490        C497   1.281       .  A
O491       Ni494   1.915       .  S
O491        C496   1.281       .  A
O492       Ni494   1.918       .  S
O492        C495   1.280       .  A
Ni493      Ni494   2.391       .  S
C495       C1032   1.467       .  S
C496        C881   1.476       .  S
C497        C853   1.480       .  S
C498        C909   1.472       .  S
O499       Ni507   1.914       .  S
O499        C509   1.281       .  A
O500       Ni507   1.917       .  S
O500        C510   1.281       .  A
O501       Ni507   1.920       .  S
O501        C511   1.282       .  A
O502       Ni507   1.922       .  S
O502        C512   1.282       .  A
O503       Ni508   1.910       .  S
O503        C512   1.280       .  A
O504       Ni508   1.914       .  S
O504        C511   1.281       .  A
O505       Ni508   1.918       .  S
O505        C510   1.282       .  A
O506       Ni508   1.918       .  S
O506        C509   1.281       .  A
Ni507      Ni508   2.389       .  S
C509        C752   1.475       .  S
C510       C1438   1.479       .  S
C511        C979   1.479       .  S
C512       C1651   1.476       .  S
O513       Ni521   1.915       .  S
O513        C523   1.281       .  A
O514       Ni521   1.918       .  S
O514        C524   1.281       .  A
O515       Ni521   1.911       .  S
O515        C525   1.280       .  A
O516       Ni521   1.916       .  S
O516        C526   1.281       .  A
O517       Ni522   1.916       .  S
O517        C526   1.280       .  A
O518       Ni522   1.921       .  S
O518        C525   1.282       .  A
O519       Ni522   1.914       .  S
O519        C524   1.279       .  A
O520       Ni522   1.920       .  S
O520        C523   1.282       .  A
Ni521      Ni522   2.391       .  S
C523       C1063   1.478       .  S
C524       C1273   1.467       .  S
C525        C811   1.481       .  S
C526       C1679   1.470       .  S
O527       Ni535   1.912       .  S
O527        C537   1.279       .  A
O528       Ni535   1.917       .  S
O528        C538   1.281       .  A
O529       Ni535   1.915       .  S
O529        C539   1.281       .  A
O530       Ni535   1.916       .  S
O530        C540   1.280       .  A
O531       Ni536   1.916       .  S
O531        C540   1.281       .  A
O532       Ni536   1.918       .  S
O532        C539   1.281       .  A
O533       Ni536   1.913       .  S
O533        C538   1.280       .  A
O534       Ni536   1.917       .  S
O534        C537   1.281       .  A
Ni535      Ni536   2.392       .  S
C537        C654   1.468       .  S
C538       C1637   1.469       .  S
C539        C895   1.476       .  S
C540       C1343   1.470       .  S
O541       Ni549   1.909       .  S
O541        C551   1.279       .  A
O542       Ni549   1.913       .  S
O542        C552   1.281       .  A
O543       Ni549   1.923       .  S
O543        C553   1.282       .  A
O544       Ni549   1.919       .  S
O544        C554   1.281       .  A
O545       Ni550   1.915       .  S
O545        C554   1.281       .  A
O546       Ni550   1.916       .  S
O546        C553   1.279       .  A
O547       Ni550   1.920       .  S
O547        C552   1.282       .  A
O548       Ni550   1.926       .  S
O548        C551   1.284       .  A
Ni549      Ni550   2.389       .  S
C551        C797   1.486       .  S
C552       C1693   1.477       .  S
C553       C1119   1.471       .  S
C554       C1609   1.476       .  S
O555       Ni563   1.911       .  S
O555        C565   1.280       .  A
O556       Ni563   1.916       .  S
O556        C566   1.280       .  A
O557       Ni563   1.919       .  S
O557        C567   1.282       .  A
O558       Ni563   1.918       .  S
O558        C568   1.281       .  A
O559       Ni564   1.913       .  S
O559        C568   1.280       .  A
O560       Ni564   1.916       .  S
O560        C567   1.280       .  A
O561       Ni564   1.916       .  S
O561        C566   1.281       .  A
O562       Ni564   1.920       .  S
O562        C565   1.282       .  A
Ni563      Ni564   2.391       .  S
C565       C1175   1.475       .  S
C566        C920   1.471       .  S
C567       C1665   1.481       .  S
C568        C643   1.469       .  S
O569       Ni577   1.920       .  S
O569        C579   1.281       .  A
O570       Ni577   1.921       .  S
O570        C580   1.282       .  A
O571       Ni577   1.917       .  S
O571        C581   1.280       .  A
O572       Ni577   1.920       .  S
O572        C582   1.282       .  A
O573       Ni578   1.912       .  S
O573        C582   1.281       .  A
O574       Ni578   1.916       .  S
O574        C581   1.283       .  A
O575       Ni578   1.913       .  S
O575        C580   1.280       .  A
O576       Ni578   1.914       .  S
O576        C579   1.279       .  A
Ni577      Ni578   2.390       .  S
C579        C965   1.467       .  S
C580       C1704   1.475       .  S
C581       C1091   1.483       .  S
C582       C1511   1.478       .  S
O583       Ni591   1.917       .  S
O583        C593   1.282       .  A
O584       Ni591   1.916       .  S
O584        C594   1.281       .  A
O585       Ni591   1.915       .  S
O585        C595   1.281       .  A
O586       Ni591   1.920       .  S
O586        C596   1.281       .  A
O587       Ni592   1.911       .  S
O587        C596   1.280       .  A
O588       Ni592   1.914       .  S
O588        C595   1.281       .  A
O589       Ni592   1.917       .  S
O589        C594   1.281       .  A
O590       Ni592   1.917       .  S
O590        C593   1.281       .  A
Ni591      Ni592   2.391       .  S
C593       C1875   1.479       .  S
C594       C1525   1.474       .  S
C595       C1917   1.473       .  S
C596       C1620   1.472       .  S
O597       Ni605   1.916       .  S
O597        C607   1.281       .  A
O598       Ni605   1.918       .  S
O598        C608   1.282       .  A
O599       Ni605   1.914       .  S
O599        C609   1.280       .  A
O600       Ni605   1.915       .  S
O600        C610   1.280       .  A
O601       Ni606   1.919       .  S
O601        C610   1.281       .  A
O602       Ni606   1.919       .  S
O602        C609   1.281       .  A
O603       Ni606   1.916       .  S
O603        C608   1.281       .  A
O604       Ni606   1.917       .  S
O604        C607   1.281       .  A
Ni605      Ni606   2.390       .  S
C607       C1861   1.477       .  S
C608       C1189   1.478       .  S
C609       C1959   1.476       .  S
C610       C1287   1.468       .  S
O611       Ni619   1.916       .  S
O611        C621   1.280       .  A
O612       Ni619   1.915       .  S
O612        C622   1.280       .  A
O613       Ni619   1.925       .  S
O613        C623   1.282       .  A
O614       Ni619   1.920       .  S
O614        C624   1.281       .  A
O615       Ni620   1.914       .  S
O615        C624   1.281       .  A
O616       Ni620   1.912       .  S
O616        C623   1.279       .  A
O617       Ni620   1.920       .  S
O617        C622   1.283       .  A
O618       Ni620   1.916       .  S
O618        C621   1.281       .  A
Ni619      Ni620   2.391       .  S
C621       C1903   1.471       .  S
C622       C1354   1.481       .  S
C623       C1945   1.471       .  S
C624       C1455   1.474       .  S
C625        C626   1.406       .  A
C625        C630   1.406       .  A
C625        H632   1.084       .  S
C626        C627   1.415       .  A
C627        C628   1.404       .  A
C627        N634   1.438       .  S
C628        C629   1.401       .  A
C628        H633   1.084       .  S
C629        C630   1.411       .  A
C630        N631   1.438       .  S
N631        H635   1.046       .  S
N631        H636   1.046       .  S
N634        H637   1.045       .  S
N634        H638   1.046       .  S
C639        C640   1.403       .  A
C639        C644   1.398       .  A
C639        H646   1.084       .  S
C640        C641   1.417       .  A
C641        C642   1.403       .  A
C641        N648   1.439       .  S
C642        C643   1.403       .  A
C642        H647   1.084       .  S
C643        C644   1.415       .  A
C644        N645   1.440       .  S
N645        H649   1.046       .  S
N645        H650   1.042       .  S
N648        H651   1.043       .  S
N648        H652   1.046       .  S
C653        C654   1.400       .  A
C653        C658   1.398       .  A
C653        H660   1.085       .  S
C654        C655   1.415       .  A
C655        C656   1.401       .  A
C655        N662   1.439       .  S
C656        C657   1.404       .  A
C656        H661   1.084       .  S
C657        C658   1.418       .  A
C658        N659   1.438       .  S
N659        H663   1.045       .  S
N659        H664   1.043       .  S
N662        H665   1.043       .  S
N662        H666   1.045       .  S
C667        C668   1.407       .  A
C667        C672   1.407       .  A
C667        H674   1.083       .  S
C668        C669   1.417       .  A
C669        C670   1.403       .  A
C669        N676   1.438       .  S
C670        C671   1.401       .  A
C670        H675   1.084       .  S
C671        C672   1.411       .  A
C672        N673   1.438       .  S
N673        H677   1.046       .  S
N673        H678   1.046       .  S
N676        H679   1.045       .  S
N676        H680   1.046       .  S
C681        C682   1.402       .  A
C681        C686   1.403       .  A
C681        H688   1.084       .  S
C682        C683   1.413       .  A
C683        C684   1.404       .  A
C683        N690   1.439       .  S
C684        C685   1.407       .  A
C684        H689   1.083       .  S
C685        C686   1.413       .  A
C686        N687   1.432       .  S
N687        H691   1.046       .  S
N687        H692   1.046       .  S
N690        H693   1.045       .  S
N690        H694   1.046       .  S
C695        C696   1.407       .  A
C695        C700   1.406       .  A
C695        H702   1.083       .  S
C696        C697   1.417       .  A
C697        C698   1.403       .  A
C697        N704   1.438       .  S
C698        C699   1.400       .  A
C698        H703   1.084       .  S
C699        C700   1.411       .  A
C700        N701   1.438       .  S
N701        H705   1.046       .  S
N701        H706   1.046       .  S
N704        H707   1.046       .  S
N704        H708   1.046       .  S
C709        C710   1.402       .  A
C709        C714   1.402       .  A
C709        H716   1.084       .  S
C710        C711   1.415       .  A
C711        C712   1.398       .  A
C711        N718   1.438       .  S
C712        C713   1.403       .  A
C712        H717   1.084       .  S
C713        C714   1.417       .  A
C714        N715   1.438       .  S
N715        H719   1.046       .  S
N715        H720   1.043       .  S
N718        H721   1.042       .  S
N718        H722   1.046       .  S
C723        C724   1.406       .  A
C723        C728   1.403       .  A
C723        H730   1.083       .  S
C724        C725   1.414       .  A
C725        C726   1.406       .  A
C725        N732   1.438       .  S
C726        C727   1.404       .  A
C726        H731   1.084       .  S
C727        C728   1.412       .  A
C728        N729   1.438       .  S
N729        H733   1.046       .  S
N729        H734   1.045       .  S
N732        H735   1.045       .  S
N732        H736   1.046       .  S
C737        C738   1.405       .  A
C737        C742   1.406       .  A
C737        H744   1.084       .  S
C738        C739   1.420       .  A
C739        C740   1.400       .  A
C739        N746   1.437       .  S
C740        C741   1.401       .  A
C740        H745   1.084       .  S
C741        C742   1.412       .  A
C742        N743   1.437       .  S
N743        H747   1.046       .  S
N743        H748   1.045       .  S
N746        H749   1.043       .  S
N746        H750   1.045       .  S
C751        C752   1.404       .  A
C751        C756   1.403       .  A
C751        H758   1.084       .  S
C752        C753   1.416       .  A
C753        C754   1.397       .  A
C753        N760   1.438       .  S
C754        C755   1.404       .  A
C754        H759   1.084       .  S
C755        C756   1.417       .  A
C756        N757   1.438       .  S
N757        H761   1.045       .  S
N757        H762   1.043       .  S
N760        H763   1.043       .  S
N760        H764   1.045       .  S
C765        C766   1.405       .  A
C765        C770   1.407       .  A
C765        H772   1.084       .  S
C766        C767   1.416       .  A
C767        C768   1.403       .  A
C767        N774   1.439       .  S
C768        C769   1.400       .  A
C768        H773   1.084       .  S
C769        C770   1.411       .  A
C770        N771   1.438       .  S
N771        H775   1.046       .  S
N771        H776   1.046       .  S
N774        H777   1.045       .  S
N774        H778   1.046       .  S
C779        C780   1.403       .  A
C779        C784   1.403       .  A
C779        H786   1.084       .  S
C780        C781   1.419       .  A
C781        C782   1.402       .  A
C781        N788   1.440       .  S
C782        C783   1.399       .  A
C782        H787   1.084       .  S
C783        C784   1.408       .  A
C784        N785   1.437       .  S
N785        H789   1.045       .  S
N785        H790   1.046       .  S
N788        H791   1.042       .  S
N788        H792   1.046       .  S
C793        C794   1.407       .  A
C793        C798   1.401       .  A
C793        H800   1.082       .  S
C794        C795   1.416       .  A
C795        C796   1.409       .  A
C795        N802   1.437       .  S
C796        C797   1.405       .  A
C796        H801   1.084       .  S
C797        C798   1.414       .  A
C798        N799   1.438       .  S
N799        H803   1.045       .  S
N799        H804   1.042       .  S
N802        H805   1.045       .  S
N802        H806   1.046       .  S
C807        C808   1.406       .  A
C807        C812   1.403       .  A
C807        H814   1.083       .  S
C808        C809   1.414       .  A
C809        C810   1.407       .  A
C809        N816   1.438       .  S
C810        C811   1.405       .  A
C810        H815   1.084       .  S
C811        C812   1.413       .  A
C812        N813   1.438       .  S
N813        H817   1.046       .  S
N813        H818   1.045       .  S
N816        H819   1.046       .  S
N816        H820   1.045       .  S
C821        C822   1.406       .  A
C821        C826   1.402       .  A
C821        H828   1.084       .  S
C822        C823   1.419       .  A
C823        C824   1.402       .  A
C823        N830   1.437       .  S
C824        C825   1.403       .  A
C824        H829   1.084       .  S
C825        C826   1.411       .  A
C826        N827   1.438       .  S
N827        H831   1.046       .  S
N827        H832   1.045       .  S
N830        H833   1.043       .  S
N830        H834   1.045       .  S
C835        C836   1.401       .  A
C835        C840   1.399       .  A
C835        H842   1.084       .  S
C836        C837   1.407       .  A
C837        C838   1.408       .  A
C837        N844   1.437       .  S
C838        C839   1.404       .  A
C838        H843   1.084       .  S
C839        C840   1.416       .  A
C840        N841   1.440       .  S
N841        H845   1.046       .  S
N841        H846   1.043       .  S
N844        H847   1.046       .  S
N844        H848   1.045       .  S
C849        C850   1.407       .  A
C849        C854   1.408       .  A
C849        H856   1.083       .  S
C850        C851   1.414       .  A
C851        C852   1.399       .  A
C851        N858   1.433       .  S
C852        C853   1.402       .  A
C852        H857   1.084       .  S
C853        C854   1.413       .  A
C854        N855   1.438       .  S
N855        H859   1.046       .  S
N855        H860   1.045       .  S
N858        H861   1.046       .  S
N858        H862   1.046       .  S
C863        C864   1.404       .  A
C863        C868   1.406       .  A
C863        H870   1.084       .  S
C864        C865   1.412       .  A
C865        C866   1.405       .  A
C865        N872   1.438       .  S
C866        C867   1.401       .  A
C866        H871   1.084       .  S
C867        C868   1.409       .  A
C868        N869   1.437       .  S
N869        H873   1.046       .  S
N869        H874   1.045       .  S
N872        H875   1.046       .  S
N872        H876   1.046       .  S
C877        C878   1.404       .  A
C877        C882   1.399       .  A
C877        H884   1.084       .  S
C878        C879   1.418       .  A
C879        C880   1.401       .  A
C879        N886   1.438       .  S
C880        C881   1.403       .  A
C880        H885   1.084       .  S
C881        C882   1.417       .  A
C882        N883   1.438       .  S
N883        H887   1.045       .  S
N883        H888   1.041       .  S
N886        H889   1.043       .  S
N886        H890   1.045       .  S
C891        C892   1.406       .  A
C891        C896   1.404       .  A
C891        H898   1.083       .  S
C892        C893   1.419       .  A
C893        C894   1.401       .  A
C893        N900   1.437       .  S
C894        C895   1.403       .  A
C894        H899   1.084       .  S
C895        C896   1.410       .  A
C896        N897   1.438       .  S
N897        H901   1.046       .  S
N897        H902   1.045       .  S
N900        H903   1.043       .  S
N900        H904   1.045       .  S
C905        C906   1.404       .  A
C905        C910   1.405       .  A
C905        H912   1.084       .  S
C906        C907   1.411       .  A
C907        C908   1.401       .  A
C907        N914   1.439       .  S
C908        C909   1.400       .  A
C908        H913   1.082       .  S
C909        C910   1.418       .  A
C910        N911   1.439       .  S
N911        H915   1.046       .  S
N911        H916   1.043       .  S
N914        H917   1.046       .  S
N914        H918   1.046       .  S
C919        C920   1.401       .  A
C919        C924   1.400       .  A
C919        H926   1.085       .  S
C920        C921   1.415       .  A
C921        C922   1.401       .  A
C921        N928   1.438       .  S
C922        C923   1.404       .  A
C922        H927   1.084       .  S
C923        C924   1.418       .  A
C924        N925   1.438       .  S
N925        H929   1.046       .  S
N925        H930   1.042       .  S
N928        H931   1.042       .  S
N928        H932   1.046       .  S
C933        C934   1.404       .  A
C933        C938   1.407       .  A
C933        H940   1.084       .  S
C934        C935   1.414       .  A
C935        C936   1.405       .  A
C935        N942   1.438       .  S
C936        C937   1.406       .  A
C936        H941   1.083       .  S
C937        C938   1.415       .  A
C938        N939   1.438       .  S
N939        H943   1.046       .  S
N939        H944   1.045       .  S
N942        H945   1.045       .  S
N942        H946   1.046       .  S
C947        C948   1.404       .  A
C947        C952   1.398       .  A
C947        H954   1.084       .  S
C948        C949   1.417       .  A
C949        C950   1.401       .  A
C949        N956   1.438       .  S
C950        C951   1.403       .  A
C950        H955   1.084       .  S
C951        C952   1.417       .  A
C952        N953   1.438       .  S
N953        H957   1.045       .  S
N953        H958   1.041       .  S
N956        H959   1.043       .  S
N956        H960   1.045       .  S
C961        C962   1.402       .  A
C961        C966   1.399       .  A
C961        H968   1.084       .  S
C962        C963   1.414       .  A
C963        C964   1.403       .  A
C963        N970   1.438       .  S
C964        C965   1.403       .  A
C964        H969   1.084       .  S
C965        C966   1.414       .  A
C966        N967   1.439       .  S
N967        H971   1.046       .  S
N967        H972   1.043       .  S
N970        H973   1.043       .  S
N970        H974   1.046       .  S
C975        C976   1.406       .  A
C975        C980   1.403       .  A
C975        H982   1.083       .  S
C976        C977   1.416       .  A
C977        C978   1.408       .  A
C977        N984   1.438       .  S
C978        C979   1.403       .  A
C978        H983   1.084       .  S
C979        C980   1.411       .  A
C980        N981   1.438       .  S
N981        H985   1.046       .  S
N981        H986   1.046       .  S
N984        H987   1.045       .  S
N984        H988   1.046       .  S
C989        C990   1.404       .  A
C989        C994   1.407       .  A
C989        H996   1.084       .  S
C990        C991   1.411       .  A
C991        C992   1.402       .  A
C991        N998   1.438       .  S
C992        C993   1.401       .  A
C992        H997   1.082       .  S
C993        C994   1.409       .  A
C994        N995   1.438       .  S
N995        H999   1.045       .  S
N995       H1000   1.046   1_565  S
N998       H1001   1.046       .  S
N998       H1002   1.045       .  S
C1003      C1004   1.406       .  A
C1003      C1008   1.405       .  A
C1003      H1010   1.084       .  S
C1004      C1005   1.414       .  A
C1005      C1006   1.404       .  A
C1005      N1012   1.438       .  S
C1006      C1007   1.406       .  A
C1006      H1011   1.083       .  S
C1007      C1008   1.411       .  A
C1008      N1009   1.432       .  S
N1009      H1013   1.045       .  S
N1009      H1014   1.046       .  S
N1012      H1015   1.045       .  S
N1012      H1016   1.046       .  S
C1017      C1018   1.406       .  A
C1017      C1022   1.403       .  A
C1017      H1024   1.083       .  S
C1018      C1019   1.412       .  A
C1019      C1020   1.405       .  A
C1019      N1026   1.432       .  S
C1020      C1021   1.405       .  A
C1020      H1025   1.084       .  S
C1021      C1022   1.414       .  A
C1022      N1023   1.438       .  S
N1023      H1027   1.046       .  S
N1023      H1028   1.045       .  S
N1026      H1029   1.045       .  S
N1026      H1030   1.046       .  S
C1031      C1032   1.401       .  A
C1031      C1036   1.405       .  A
C1031      H1038   1.084       .  S
C1032      C1033   1.416       .  A
C1033      C1034   1.401       .  A
C1033      N1040   1.439       .  S
C1034      C1035   1.401       .  A
C1034      H1039   1.084       .  S
C1035      C1036   1.409       .  A
C1036      N1037   1.438       .  S
N1037      H1041   1.046       .  S
N1037      H1042   1.045       .  S
N1040      H1043   1.043       .  S
N1040      H1044   1.045       .  S
C1045      C1046   1.405       .  A
C1045      C1050   1.408       .  A
C1045      H1052   1.084       .  S
C1046      C1047   1.415       .  A
C1047      C1048   1.402       .  A
C1047      N1054   1.438       .  S
C1048      C1049   1.399       .  A
C1048      H1053   1.084       .  S
C1049      C1050   1.410       .  A
C1050      N1051   1.438       .  S
N1051      H1055   1.046       .  S
N1051      H1056   1.046       .  S
N1054      H1057   1.046       .  S
N1054      H1058   1.046       .  S
C1059      C1060   1.406       .  A
C1059      C1064   1.404       .  A
C1059      H1066   1.083       .  S
C1060      C1061   1.415       .  A
C1061      C1062   1.407       .  A
C1061      N1068   1.438       .  S
C1062      C1063   1.403       .  A
C1062      H1067   1.084       .  S
C1063      C1064   1.411       .  A
C1064      N1065   1.438       .  S
N1065      H1069   1.046       .  S
N1065      H1070   1.045       .  S
N1068      H1071   1.045       .  S
N1068      H1072   1.046       .  S
C1073      C1074   1.410       .  A
C1073      C1078   1.409       .  A
C1073      H1080   1.082       .  S
C1074      C1075   1.420       .  A
C1075      C1076   1.399       .  A
C1075      N1082   1.429       .  S
C1076      C1077   1.399       .  A
C1076      H1081   1.084       .  S
C1077      C1078   1.416       .  A
C1078      N1079   1.438       .  S
N1079      H1083   1.046       .  S
N1079      H1084   1.045       .  S
N1082      H1085   1.046       .  S
N1082      H1086   1.046       .  S
C1087      C1088   1.406       .  A
C1087      C1092   1.408       .  A
C1087      H1094   1.083       .  S
C1088      C1089   1.415       .  A
C1089      C1090   1.401       .  A
C1089      N1096   1.436       .  S
C1090      C1091   1.401       .  A
C1090      H1095   1.084       .  S
C1091      C1092   1.414       .  A
C1092      N1093   1.437       .  S
N1093      H1097   1.046       .  S
N1093      H1098   1.043       .  S
N1096      H1099   1.045       .  S
N1096      H1100   1.046       .  S
C1101      C1102   1.404       .  A
C1101      C1106   1.409       .  A
C1101      H1108   1.084       .  S
C1102      C1103   1.411       .  A
C1103      C1104   1.403       .  A
C1103      N1110   1.438       .  S
C1104      C1105   1.406       .  A
C1104      H1109   1.083       .  S
C1105      C1106   1.415       .  A
C1106      N1107   1.437       .  S
N1107      H1111   1.045       .  S
N1107      H1112   1.046       .  S
N1110      H1113   1.046       .  S
N1110      H1114   1.045       .  S
C1115      C1116   1.400       .  A
C1115      C1120   1.403       .  A
C1115      H1122   1.084       .  S
C1116      C1117   1.410       .  A
C1117      C1118   1.408       .  A
C1117      N1124   1.437       .  S
C1118      C1119   1.402       .  A
C1118      H1123   1.084       .  S
C1119      C1120   1.408       .  A
C1120      N1121   1.434       .  S
N1121      H1125   1.046       .  S
N1121      H1126   1.044       .  S
N1124      H1127   1.045       .  S
N1124      H1128   1.046       .  S
C1129      C1130   1.403       .  A
C1129      C1134   1.406       .  A
C1129      H1136   1.084       .  S
C1130      C1131   1.414       .  A
C1131      C1132   1.404       .  A
C1131      N1138   1.438       .  S
C1132      C1133   1.400       .  A
C1132      H1137   1.084       .  S
C1133      C1134   1.411       .  A
C1134      N1135   1.436       .  S
N1135      H1139   1.046       .  S
N1135      H1140   1.045   1_554  S
N1138      H1141   1.046       .  S
N1138      H1142   1.046       .  S
C1143      C1144   1.405       .  A
C1143      C1148   1.408       .  A
C1143      H1150   1.084       .  S
C1144      C1145   1.413       .  A
C1145      C1146   1.404       .  A
C1145      N1152   1.438       .  S
C1146      C1147   1.407       .  A
C1146      H1151   1.083       .  S
C1147      C1148   1.415       .  A
C1148      N1149   1.438       .  S
N1149      H1153   1.046       .  S
N1149      H1154   1.045       .  S
N1152      H1155   1.045       .  S
N1152      H1156   1.046       .  S
C1157      C1158   1.406       .  A
C1157      C1162   1.403       .  A
C1157      H1164   1.083       .  S
C1158      C1159   1.413       .  A
C1159      C1160   1.407       .  A
C1159      N1166   1.438       .  S
C1160      C1161   1.405       .  A
C1160      H1165   1.084       .  S
C1161      C1162   1.412       .  A
C1162      N1163   1.438       .  S
N1163      H1167   1.046       .  S
N1163      H1168   1.045       .  S
N1166      H1169   1.045       .  S
N1166      H1170   1.046       .  S
C1171      C1172   1.406       .  A
C1171      C1176   1.407       .  A
C1171      H1178   1.083       .  S
C1172      C1173   1.415       .  A
C1173      C1174   1.402       .  A
C1173      N1180   1.439       .  S
C1174      C1175   1.400       .  A
C1174      H1179   1.084       .  S
C1175      C1176   1.411       .  A
C1176      N1177   1.438       .  S
N1177      H1181   1.046       .  S
N1177      H1182   1.046       .  S
N1180      H1183   1.045       .  S
N1180      H1184   1.046       .  S
C1185      C1186   1.406       .  A
C1185      C1190   1.404       .  A
C1185      H1192   1.083       .  S
C1186      C1187   1.415       .  A
C1187      C1188   1.406       .  A
C1187      N1194   1.438       .  S
C1188      C1189   1.403       .  A
C1188      H1193   1.084       .  S
C1189      C1190   1.411       .  A
C1190      N1191   1.438       .  S
N1191      H1195   1.046       .  S
N1191      H1196   1.044       .  S
N1194      H1197   1.045       .  S
N1194      H1198   1.046       .  S
C1199      C1200   1.404       .  A
C1199      C1204   1.404       .  A
C1199      H1206   1.084       .  S
C1200      C1201   1.419       .  A
C1201      C1202   1.400       .  A
C1201      N1208   1.437       .  S
C1202      C1203   1.402       .  A
C1202      H1207   1.084       .  S
C1203      C1204   1.412       .  A
C1204      N1205   1.437       .  S
N1205      H1209   1.046       .  S
N1205      H1210   1.045       .  S
N1208      H1211   1.043       .  S
N1208      H1212   1.045       .  S
C1213      C1214   1.403       .  A
C1213      C1218   1.404       .  A
C1213      H1220   1.084       .  S
C1214      C1215   1.417       .  A
C1215      C1216   1.397       .  A
C1215      N1222   1.438       .  S
C1216      C1217   1.400       .  A
C1216      H1221   1.085       .  S
C1217      C1218   1.417       .  A
C1218      N1219   1.438       .  S
N1219      H1223   1.046       .  S
N1219      H1224   1.043       .  S
N1222      H1225   1.042       .  S
N1222      H1226   1.045       .  S
C1227      C1228   1.402       .  A
C1227      C1232   1.403       .  A
C1227      H1234   1.084       .  S
C1228      C1229   1.415       .  A
C1229      C1230   1.399       .  A
C1229      N1236   1.440       .  S
C1230      C1231   1.403       .  A
C1230      H1235   1.084       .  S
C1231      C1232   1.417       .  A
C1232      N1233   1.439       .  S
N1233      H1237   1.046       .  S
N1233      H1238   1.043       .  S
N1236      H1239   1.042       .  S
N1236      H1240   1.046       .  S
C1241      C1242   1.406       .  A
C1241      C1246   1.408       .  A
C1241      H1248   1.083       .  S
C1242      C1243   1.415       .  A
C1243      C1244   1.399       .  A
C1243      N1250   1.433       .  S
C1244      C1245   1.402       .  A
C1244      H1249   1.084       .  S
C1245      C1246   1.415       .  A
C1246      N1247   1.438       .  S
N1247      H1251   1.046       .  S
N1247      H1252   1.045       .  S
N1250      H1253   1.046       .  S
N1250      H1254   1.046       .  S
C1255      C1256   1.400       .  A
C1255      C1260   1.400       .  A
C1255      H1262   1.085       .  S
C1256      C1257   1.416       .  A
C1257      C1258   1.403       .  A
C1257      N1264   1.439       .  S
C1258      C1259   1.403       .  A
C1258      H1263   1.084       .  S
C1259      C1260   1.418       .  A
C1260      N1261   1.440       .  S
N1261      H1265   1.046       .  S
N1261      H1266   1.042       .  S
N1264      H1267   1.043   1_655  S
N1264      H1268   1.046       .  S
C1269      C1270   1.403       .  A
C1269      C1274   1.402       .  A
C1269      H1276   1.084       .  S
C1270      C1271   1.417       .  A
C1271      C1272   1.399       .  A
C1271      N1278   1.439       .  S
C1272      C1273   1.400       .  A
C1272      H1277   1.085       .  S
C1273      C1274   1.415       .  A
C1274      N1275   1.439       .  S
N1275      H1279   1.046       .  S
N1275      H1280   1.043       .  S
N1278      H1281   1.043       .  S
N1278      H1282   1.045       .  S
C1283      C1284   1.402       .  A
C1283      C1288   1.403       .  A
C1283      H1290   1.084       .  S
C1284      C1285   1.416       .  A
C1285      C1286   1.398       .  A
C1285      N1292   1.439       .  S
C1286      C1287   1.399       .  A
C1286      H1291   1.083       .  S
C1287      C1288   1.415       .  A
C1288      N1289   1.438       .  S
N1289      H1293   1.045       .  S
N1289      H1294   1.043       .  S
N1292      H1295   1.043       .  S
N1292      H1296   1.045       .  S
C1297      C1298   1.403       .  A
C1297      C1302   1.403       .  A
C1297      H1304   1.084       .  S
C1298      C1299   1.414       .  A
C1299      C1300   1.398       .  A
C1299      N1306   1.440       .  S
C1300      C1301   1.403       .  A
C1300      H1305   1.085       .  S
C1301      C1302   1.416       .  A
C1302      N1303   1.439       .  S
N1303      H1307   1.046       .  S
N1303      H1308   1.043       .  S
N1306      H1309   1.043       .  S
N1306      H1310   1.046       .  S
C1311      C1312   1.406       .  A
C1311      C1316   1.405       .  A
C1311      H1318   1.084       .  S
C1312      C1313   1.415       .  A
C1313      C1314   1.407       .  A
C1313      N1320   1.438       .  S
C1314      C1315   1.403       .  A
C1314      H1319   1.084       .  S
C1315      C1316   1.413       .  A
C1316      N1317   1.438       .  S
N1317      H1321   1.045       .  S
N1317      H1322   1.045       .  S
N1320      H1323   1.046       .  S
N1320      H1324   1.045       .  S
C1325      C1326   1.406       .  A
C1325      C1330   1.407       .  A
C1325      H1332   1.084       .  S
C1326      C1327   1.416       .  A
C1327      C1328   1.405       .  A
C1327      N1334   1.438       .  S
C1328      C1329   1.402       .  A
C1328      H1333   1.084       .  S
C1329      C1330   1.412       .  A
C1330      N1331   1.438       .  S
N1331      H1335   1.045       .  S
N1331      H1336   1.046       .  S
N1334      H1337   1.046       .  S
N1334      H1338   1.045       .  S
C1339      C1340   1.403       .  A
C1339      C1344   1.398       .  A
C1339      H1346   1.085       .  S
C1340      C1341   1.416       .  A
C1341      C1342   1.404       .  A
C1341      N1348   1.439       .  S
C1342      C1343   1.404       .  A
C1342      H1347   1.084       .  S
C1343      C1344   1.415       .  A
C1344      N1345   1.440       .  S
N1345      H1349   1.046       .  S
N1345      H1350   1.042       .  S
N1348      H1351   1.043       .  S
N1348      H1352   1.046       .  S
C1353      C1354   1.404       .  A
C1353      C1358   1.404       .  A
C1353      H1360   1.083       .  S
C1354      C1355   1.422       .  A
C1355      C1356   1.403       .  A
C1355      N1362   1.439       .  S
C1356      C1357   1.403       .  A
C1356      H1361   1.084       .  S
C1357      C1358   1.413       .  A
C1358      N1359   1.438       .  S
N1359      H1363   1.046       .  S
N1359      H1364   1.045       .  S
N1362      H1365   1.039       .  S
N1362      H1366   1.046       .  S
C1367      C1368   1.407       .  A
C1367      C1372   1.402       .  A
C1367      H1374   1.084       .  S
C1368      C1369   1.419       .  A
C1369      C1370   1.404       .  A
C1369      N1376   1.439       .  S
C1370      C1371   1.403       .  A
C1370      H1375   1.084       .  S
C1371      C1372   1.407       .  A
C1372      N1373   1.438       .  S
N1373      H1377   1.046       .  S
N1373      H1378   1.046       .  S
N1376      H1379   1.043       .  S
N1376      H1380   1.046       .  S
C1381      C1382   1.403       .  A
C1381      C1386   1.402       .  A
C1381      H1388   1.084       .  S
C1382      C1383   1.416       .  A
C1383      C1384   1.399       .  A
C1383      N1390   1.439       .  S
C1384      C1385   1.404       .  A
C1384      H1389   1.084       .  S
C1385      C1386   1.418       .  A
C1386      N1387   1.438       .  S
N1387      H1391   1.045       .  S
N1387      H1392   1.043       .  S
N1390      H1393   1.043       .  S
N1390      H1394   1.045       .  S
C1395      C1396   1.402       .  A
C1395      C1400   1.403       .  A
C1395      H1402   1.084       .  S
C1396      C1397   1.413       .  A
C1397      C1398   1.406       .  A
C1397      N1404   1.438       .  S
C1398      C1399   1.406       .  A
C1398      H1403   1.083       .  S
C1399      C1400   1.415       .  A
C1400      N1401   1.438       .  S
N1401      H1405   1.045       .  S
N1401      H1406   1.046       .  S
N1404      H1407   1.045       .  S
N1404      H1408   1.045       .  S
C1409      C1410   1.401       .  A
C1409      C1414   1.403       .  A
C1409      H1416   1.084       .  S
C1410      C1411   1.411       .  A
C1411      C1412   1.407       .  A
C1411      N1418   1.438       .  S
C1412      C1413   1.405       .  A
C1412      H1417   1.084       .  S
C1413      C1414   1.415       .  A
C1414      N1415   1.438       .  S
N1415      H1419   1.045       .  S
N1415      H1420   1.046       .  S
N1418      H1421   1.046   1_565  S
N1418      H1422   1.045       .  S
C1423      C1424   1.403       .  A
C1423      C1428   1.404       .  A
C1423      H1430   1.084       .  S
C1424      C1425   1.413       .  A
C1425      C1426   1.406       .  A
C1425      N1432   1.438       .  S
C1426      C1427   1.406       .  A
C1426      H1431   1.084       .  S
C1427      C1428   1.415       .  A
C1428      N1429   1.438       .  S
N1429      H1433   1.046       .  S
N1429      H1434   1.046       .  S
N1432      H1435   1.045       .  S
N1432      H1436   1.046       .  S
C1437      C1438   1.402       .  A
C1437      C1442   1.405       .  A
C1437      H1444   1.084       .  S
C1438      C1439   1.412       .  A
C1439      C1440   1.407       .  A
C1439      N1446   1.438       .  S
C1440      C1441   1.406       .  A
C1440      H1445   1.084       .  S
C1441      C1442   1.416       .  A
C1442      N1443   1.438       .  S
N1443      H1447   1.046       .  S
N1443      H1448   1.045       .  S
N1446      H1449   1.046       .  S
N1446      H1450   1.046       .  S
C1451      C1452   1.404       .  A
C1451      C1456   1.398       .  A
C1451      H1458   1.085       .  S
C1452      C1453   1.418       .  A
C1453      C1454   1.405       .  A
C1453      N1460   1.439       .  S
C1454      C1455   1.404       .  A
C1454      H1459   1.084       .  S
C1455      C1456   1.416       .  A
C1456      N1457   1.440       .  S
N1457      H1461   1.046       .  S
N1457      H1462   1.041       .  S
N1460      H1463   1.043       .  S
N1460      H1464   1.046       .  S
C1465      C1466   1.402       .  A
C1465      C1470   1.404       .  A
C1465      H1472   1.084       .  S
C1466      C1467   1.412       .  A
C1467      C1468   1.406       .  A
C1467      N1474   1.438       .  S
C1468      C1469   1.407       .  A
C1468      H1473   1.084       .  S
C1469      C1470   1.415       .  A
C1470      N1471   1.438       .  S
N1471      H1475   1.045       .  S
N1471      H1476   1.046       .  S
N1474      H1477   1.045       .  S
N1474      H1478   1.045       .  S
C1479      C1480   1.400       .  A
C1479      C1484   1.402       .  A
C1479      H1486   1.084       .  S
C1480      C1481   1.410       .  A
C1481      C1482   1.407       .  A
C1481      N1488   1.438       .  S
C1482      C1483   1.406       .  A
C1482      H1487   1.084       .  S
C1483      C1484   1.415       .  A
C1484      N1485   1.438       .  S
N1485      H1489   1.046       .  S
N1485      H1490   1.046       .  S
N1488      H1491   1.046       .  S
N1488      H1492   1.046       .  S
C1493      C1494   1.404       .  A
C1493      C1498   1.401       .  A
C1493      H1500   1.084       .  S
C1494      C1495   1.418       .  A
C1495      C1496   1.399       .  A
C1495      N1502   1.438       .  S
C1496      C1497   1.401       .  A
C1496      H1501   1.085       .  S
C1497      C1498   1.416       .  A
C1498      N1499   1.438       .  S
N1499      H1503   1.045       .  S
N1499      H1504   1.043   1_565  S
N1502      H1505   1.043       .  S
N1502      H1506   1.045       .  S
C1507      C1508   1.405       .  A
C1507      C1512   1.402       .  A
C1507      H1514   1.083       .  S
C1508      C1509   1.413       .  A
C1509      C1510   1.408       .  A
C1509      N1516   1.438       .  S
C1510      C1511   1.404       .  A
C1510      H1515   1.084       .  S
C1511      C1512   1.410       .  A
C1512      N1513   1.438       .  S
N1513      H1517   1.045       .  S
N1513      H1518   1.046       .  S
N1516      H1519   1.046       .  S
N1516      H1520   1.045       .  S
C1521      C1522   1.404       .  A
C1521      C1526   1.404       .  A
C1521      H1528   1.084       .  S
C1522      C1523   1.415       .  A
C1523      C1524   1.394       .  A
C1523      N1530   1.433       .  S
C1524      C1525   1.400       .  A
C1524      H1529   1.082       .  S
C1525      C1526   1.418       .  A
C1526      N1527   1.438       .  S
N1527      H1531   1.045       .  S
N1527      H1532   1.043       .  S
N1530      H1533   1.046       .  S
N1530      H1534   1.042       .  S
C1535      C1536   1.403       .  A
C1535      C1540   1.399       .  A
C1535      H1542   1.084       .  S
C1536      C1537   1.418       .  A
C1537      C1538   1.401       .  A
C1537      N1544   1.438       .  S
C1538      C1539   1.402       .  A
C1538      H1543   1.084       .  S
C1539      C1540   1.416       .  A
C1540      N1541   1.439       .  S
N1541      H1545   1.045       .  S
N1541      H1546   1.043       .  S
N1544      H1547   1.043       .  S
N1544      H1548   1.045       .  S
C1549      C1550   1.402       .  A
C1549      C1554   1.404       .  A
C1549      H1556   1.084       .  S
C1550      C1551   1.413       .  A
C1551      C1552   1.406       .  A
C1551      N1558   1.438       .  S
C1552      C1553   1.406       .  A
C1552      H1557   1.083       .  S
C1553      C1554   1.417       .  A
C1554      N1555   1.438       .  S
N1555      H1559   1.046       .  S
N1555      H1560   1.045       .  S
N1558      H1561   1.043       .  S
N1558      H1562   1.046       .  S
C1563      C1564   1.407       .  A
C1563      C1568   1.405       .  A
C1563      H1570   1.083       .  S
C1564      C1565   1.414       .  A
C1565      C1566   1.407       .  A
C1565      N1572   1.438       .  S
C1566      C1567   1.405       .  A
C1566      H1571   1.084       .  S
C1567      C1568   1.412       .  A
C1568      N1569   1.438       .  S
N1569      H1573   1.046       .  S
N1569      H1574   1.045       .  S
N1572      H1575   1.046       .  S
N1572      H1576   1.045       .  S
C1577      C1578   1.405       .  A
C1577      C1582   1.403       .  A
C1577      H1584   1.084       .  S
C1578      C1579   1.413       .  A
C1579      C1580   1.407       .  A
C1579      N1586   1.438       .  S
C1580      C1581   1.404       .  A
C1580      H1585   1.084       .  S
C1581      C1582   1.410       .  A
C1582      N1583   1.438       .  S
N1583      H1587   1.045       .  S
N1583      H1588   1.046       .  S
N1586      H1589   1.046       .  S
N1586      H1590   1.045       .  S
C1591      C1592   1.401       .  A
C1591      C1596   1.406       .  A
C1591      H1598   1.084       .  S
C1592      C1593   1.410       .  A
C1593      C1594   1.404       .  A
C1593      N1600   1.438       .  S
C1594      C1595   1.400       .  A
C1594      H1599   1.084       .  S
C1595      C1596   1.409       .  A
C1596      N1597   1.436       .  S
N1597      H1601   1.046       .  S
N1597      H1602   1.046   1_655  S
N1600      H1603   1.046       .  S
N1600      H1604   1.046       .  S
C1605      C1606   1.406       .  A
C1605      C1610   1.404       .  A
C1605      H1612   1.083       .  S
C1606      C1607   1.414       .  A
C1607      C1608   1.406       .  A
C1607      N1614   1.438       .  S
C1608      C1609   1.402       .  A
C1608      H1613   1.084       .  S
C1609      C1610   1.410       .  A
C1610      N1611   1.438       .  S
N1611      H1615   1.046       .  S
N1611      H1616   1.046       .  S
N1614      H1617   1.045       .  S
N1614      H1618   1.046       .  S
C1619      C1620   1.402       .  A
C1619      C1624   1.402       .  A
C1619      H1626   1.084       .  S
C1620      C1621   1.416       .  A
C1621      C1622   1.397       .  A
C1621      N1628   1.438       .  S
C1622      C1623   1.403       .  A
C1622      H1627   1.084       .  S
C1623      C1624   1.418       .  A
C1624      N1625   1.438       .  S
N1625      H1629   1.045       .  S
N1625      H1630   1.043       .  S
N1628      H1631   1.041       .  S
N1628      H1632   1.045       .  S
C1633      C1634   1.402       .  A
C1633      C1638   1.402       .  A
C1633      H1640   1.084       .  S
C1634      C1635   1.411       .  A
C1635      C1636   1.403       .  A
C1635      N1642   1.438       .  S
C1636      C1637   1.401       .  A
C1636      H1641   1.084       .  S
C1637      C1638   1.418       .  A
C1638      N1639   1.439       .  S
N1639      H1643   1.045       .  S
N1639      H1644   1.042       .  S
N1642      H1645   1.046       .  S
N1642      H1646   1.046       .  S
C1647      C1648   1.407       .  A
C1647      C1652   1.408       .  A
C1647      H1654   1.083       .  S
C1648      C1649   1.417       .  A
C1649      C1650   1.403       .  A
C1649      N1656   1.439       .  S
C1650      C1651   1.400       .  A
C1650      H1655   1.084       .  S
C1651      C1652   1.410       .  A
C1652      N1653   1.438       .  S
N1653      H1657   1.045       .  S
N1653      H1658   1.046       .  S
N1656      H1659   1.046       .  S
N1656      H1660   1.045       .  S
C1661      C1662   1.406       .  A
C1661      C1666   1.407       .  A
C1661      H1668   1.083       .  S
C1662      C1663   1.416       .  A
C1663      C1664   1.405       .  A
C1663      N1670   1.438       .  S
C1664      C1665   1.402       .  A
C1664      H1669   1.084       .  S
C1665      C1666   1.413       .  A
C1666      N1667   1.438       .  S
N1667      H1671   1.046       .  S
N1667      H1672   1.045       .  S
N1670      H1673   1.045       .  S
N1670      H1674   1.046       .  S
C1675      C1676   1.402       .  A
C1675      C1680   1.403       .  A
C1675      H1682   1.084       .  S
C1676      C1677   1.410       .  A
C1677      C1678   1.403       .  A
C1677      N1684   1.438       .  S
C1678      C1679   1.402       .  A
C1678      H1683   1.084       .  S
C1679      C1680   1.417       .  A
C1680      N1681   1.439       .  S
N1681      H1685   1.046       .  S
N1681      H1686   1.043       .  S
N1684      H1687   1.046       .  S
N1684      H1688   1.046       .  S
C1689      C1690   1.405       .  A
C1689      C1694   1.402       .  A
C1689      H1696   1.084       .  S
C1690      C1691   1.414       .  A
C1691      C1692   1.408       .  A
C1691      N1698   1.438       .  S
C1692      C1693   1.404       .  A
C1692      H1697   1.084       .  S
C1693      C1694   1.411       .  A
C1694      N1695   1.439       .  S
N1695      H1699   1.046       .  S
N1695      H1700   1.046       .  S
N1698      H1701   1.045       .  S
N1698      H1702   1.046       .  S
C1703      C1704   1.401       .  A
C1703      C1708   1.404       .  A
C1703      H1710   1.084       .  S
C1704      C1705   1.410       .  A
C1705      C1706   1.406       .  A
C1705      N1712   1.436       .  S
C1706      C1707   1.404       .  A
C1706      H1711   1.084       .  S
C1707      C1708   1.414       .  A
C1708      N1709   1.438       .  S
N1709      H1713   1.046       .  S
N1709      H1714   1.046       .  S
N1712      H1715   1.045       .  S
N1712      H1716   1.046       .  S
C1717      C1718   1.402       .  A
C1717      C1722   1.398       .  A
C1717      H1724   1.084       .  S
C1718      C1719   1.411       .  A
C1719      C1720   1.407       .  A
C1719      N1726   1.438       .  S
C1720      C1721   1.406       .  A
C1720      H1725   1.084       .  S
C1721      C1722   1.421       .  A
C1722      N1723   1.440       .  S
N1723      H1727   1.046       .  S
N1723      H1728   1.039       .  S
N1726      H1729   1.045       .  S
N1726      H1730   1.046       .  S
C1731      C1732   1.402       .  A
C1731      C1736   1.404       .  A
C1731      H1738   1.084       .  S
C1732      C1733   1.406       .  A
C1733      C1734   1.401       .  A
C1733      N1740   1.437       .  S
C1734      C1735   1.402       .  A
C1734      H1739   1.084       .  S
C1735      C1736   1.416       .  A
C1736      N1737   1.438       .  S
N1737      H1741   1.045       .  S
N1737      H1742   1.044       .  S
N1740      H1743   1.046       .  S
N1740      H1744   1.046       .  S
C1745      C1746   1.404       .  A
C1745      C1750   1.407       .  A
C1745      H1752   1.084       .  S
C1746      C1747   1.413       .  A
C1747      C1748   1.404       .  A
C1747      N1754   1.438       .  S
C1748      C1749   1.405       .  A
C1748      H1753   1.083       .  S
C1749      C1750   1.415       .  A
C1750      N1751   1.438       .  S
N1751      H1755   1.045       .  S
N1751      H1756   1.046       .  S
N1754      H1757   1.045       .  S
N1754      H1758   1.046       .  S
C1759      C1760   1.403       .  A
C1759      C1764   1.404       .  A
C1759      H1766   1.084       .  S
C1760      C1761   1.412       .  A
C1761      C1762   1.406       .  A
C1761      N1768   1.438       .  S
C1762      C1763   1.406       .  A
C1762      H1767   1.084       .  S
C1763      C1764   1.414       .  A
C1764      N1765   1.438       .  S
N1765      H1769   1.046       .  S
N1765      H1770   1.045       .  S
N1768      H1771   1.045       .  S
N1768      H1772   1.046       .  S
C1773      C1774   1.404       .  A
C1773      C1778   1.407       .  A
C1773      H1780   1.084       .  S
C1774      C1775   1.410       .  A
C1775      C1776   1.402       .  A
C1775      N1782   1.438       .  S
C1776      C1777   1.406       .  A
C1776      H1781   1.083       .  S
C1777      C1778   1.414       .  A
C1778      N1779   1.438       .  S
N1779      H1783   1.046       .  S
N1779      H1784   1.045       .  S
N1782      H1785   1.044       .  S
N1782      H1786   1.046       .  S
C1787      C1788   1.403       .  A
C1787      C1792   1.403       .  A
C1787      H1794   1.084       .  S
C1788      C1789   1.416       .  A
C1789      C1790   1.399       .  A
C1789      N1796   1.440       .  S
C1790      C1791   1.400       .  A
C1790      H1795   1.083       .  S
C1791      C1792   1.415       .  A
C1792      N1793   1.439       .  S
N1793      H1797   1.046       .  S
N1793      H1798   1.043   1_554  S
N1796      H1799   1.042       .  S
N1796      H1800   1.046       .  S
C1801      C1802   1.408       .  A
C1801      C1806   1.406       .  A
C1801      H1808   1.083       .  S
C1802      C1803   1.417       .  A
C1803      C1804   1.405       .  A
C1803      N1810   1.438       .  S
C1804      C1805   1.402       .  A
C1804      H1809   1.084       .  S
C1805      C1806   1.410       .  A
C1806      N1807   1.438       .  S
N1807      H1811   1.046       .  S
N1807      H1812   1.046       .  S
N1810      H1813   1.045       .  S
N1810      H1814   1.046       .  S
C1815      C1816   1.403       .  A
C1815      C1820   1.402       .  A
C1815      H1822   1.084       .  S
C1816      C1817   1.409       .  A
C1817      C1818   1.402       .  A
C1817      N1824   1.438       .  S
C1818      C1819   1.406       .  A
C1818      H1823   1.084       .  S
C1819      C1820   1.419       .  A
C1820      N1821   1.437       .  S
N1821      H1825   1.045       .  S
N1821      H1826   1.043       .  S
N1824      H1827   1.045       .  S
N1824      H1828   1.046       .  S
C1829      C1830   1.406       .  A
C1829      C1834   1.404       .  A
C1829      H1836   1.083       .  S
C1830      C1831   1.415       .  A
C1831      C1832   1.406       .  A
C1831      N1838   1.438       .  S
C1832      C1833   1.402       .  A
C1832      H1837   1.084       .  S
C1833      C1834   1.409       .  A
C1834      N1835   1.438       .  S
N1835      H1839   1.046       .  S
N1835      H1840   1.046       .  S
N1838      H1841   1.045       .  S
N1838      H1842   1.046       .  S
C1843      C1844   1.401       .  A
C1843      C1848   1.404       .  A
C1843      H1850   1.084       .  S
C1844      C1845   1.409       .  A
C1845      C1846   1.403       .  A
C1845      N1852   1.438       .  S
C1846      C1847   1.400       .  A
C1846      H1851   1.084       .  S
C1847      C1848   1.417       .  A
C1848      N1849   1.439       .  S
N1849      H1853   1.046       .  S
N1849      H1854   1.043   1_655  S
N1852      H1855   1.045       .  S
N1852      H1856   1.046       .  S
C1857      C1858   1.406       .  A
C1857      C1862   1.406       .  A
C1857      H1864   1.084       .  S
C1858      C1859   1.414       .  A
C1859      C1860   1.405       .  A
C1859      N1866   1.438       .  S
C1860      C1861   1.402       .  A
C1860      H1865   1.084       .  S
C1861      C1862   1.411       .  A
C1862      N1863   1.438       .  S
N1863      H1867   1.045       .  S
N1863      H1868   1.045       .  S
N1866      H1869   1.046       .  S
N1866      H1870   1.045       .  S
C1871      C1872   1.407       .  A
C1871      C1876   1.407       .  A
C1871      H1878   1.083       .  S
C1872      C1873   1.417       .  A
C1873      C1874   1.404       .  A
C1873      N1880   1.438       .  S
C1874      C1875   1.401       .  A
C1874      H1879   1.084       .  S
C1875      C1876   1.411       .  A
C1876      N1877   1.438       .  S
N1877      H1881   1.046       .  S
N1877      H1882   1.046       .  S
N1880      H1883   1.045       .  S
N1880      H1884   1.046       .  S
C1885      C1886   1.401       .  A
C1885      C1890   1.398       .  A
C1885      H1892   1.084       .  S
C1886      C1887   1.415       .  A
C1887      C1888   1.403       .  A
C1887      N1894   1.438       .  S
C1888      C1889   1.402       .  A
C1888      H1893   1.084       .  S
C1889      C1890   1.414       .  A
C1890      N1891   1.438       .  S
N1891      H1895   1.045       .  S
N1891      H1896   1.043       .  S
N1894      H1897   1.044       .  S
N1894      H1898   1.046       .  S
C1899      C1900   1.404       .  A
C1899      C1904   1.406       .  A
C1899      H1906   1.084       .  S
C1900      C1901   1.419       .  A
C1901      C1902   1.399       .  A
C1901      N1908   1.438       .  S
C1902      C1903   1.400       .  A
C1902      H1907   1.084       .  S
C1903      C1904   1.410       .  A
C1904      N1905   1.438       .  S
N1905      H1909   1.046       .  S
N1905      H1910   1.045       .  S
N1908      H1911   1.042       .  S
N1908      H1912   1.046       .  S
C1913      C1914   1.405       .  A
C1913      C1918   1.402       .  A
C1913      H1920   1.084       .  S
C1914      C1915   1.413       .  A
C1915      C1916   1.406       .  A
C1915      N1922   1.438       .  S
C1916      C1917   1.403       .  A
C1916      H1921   1.084       .  S
C1917      C1918   1.409       .  A
C1918      N1919   1.438       .  S
N1919      H1923   1.046       .  S
N1919      H1924   1.046       .  S
N1922      H1925   1.045       .  S
N1922      H1926   1.046       .  S
C1927      C1928   1.403       .  A
C1927      C1932   1.403       .  A
C1927      H1934   1.084       .  S
C1928      C1929   1.412       .  A
C1929      C1930   1.404       .  A
C1929      N1936   1.438       .  S
C1930      C1931   1.403       .  A
C1930      H1935   1.084       .  S
C1931      C1932   1.419       .  A
C1932      N1933   1.440       .  S
N1933      H1937   1.046       .  S
N1933      H1938   1.042       .  S
N1936      H1939   1.045       .  S
N1936      H1940   1.046       .  S
C1941      C1942   1.402       .  A
C1941      C1946   1.407       .  A
C1941      H1948   1.084       .  S
C1942      C1943   1.411       .  A
C1943      C1944   1.404       .  A
C1943      N1950   1.438       .  S
C1944      C1945   1.400       .  A
C1944      H1949   1.084       .  S
C1945      C1946   1.409       .  A
C1946      N1947   1.436       .  S
N1947      H1951   1.046       .  S
N1947      H1952   1.046       .  S
N1950      H1953   1.046       .  S
N1950      H1954   1.046       .  S
C1955      C1956   1.405       .  A
C1955      C1960   1.404       .  A
C1955      H1962   1.084       .  S
C1956      C1957   1.417       .  A
C1957      C1958   1.401       .  A
C1957      N1964   1.433       .  S
C1958      C1959   1.403       .  A
C1958      H1963   1.084       .  S
C1959      C1960   1.411       .  A
C1960      N1961   1.438       .  S
N1961      H1965   1.046       .  S
N1961      H1966   1.045       .  S
N1964      H1967   1.045       .  S
N1964      H1968   1.043       .  S
