geometry optimzed in LAMMPS
_audit_creation_date              2020-12-01 
_audit_creation_method            'lammps2cif' 
_symmetry_space_group_name_H-M    'P1' 
_symmetry_Int_Tables_number       1 
_symmetry_cell_setting            triclinic 
loop_ 
_symmetry_equiv_pos_as_xyz 
  x,y,z 
_cell_length_a                    44.09406572 
_cell_length_b                    44.07974425547132 
_cell_length_c                    55.16387534511959 
_cell_angle_alpha                 86.80406410548032 
_cell_angle_beta                  90.70955621986481 
_cell_angle_gamma                 119.9530514773837 
loop_ 
_atom_site_label 
_atom_site_type_symbol 
_atom_site_fract_x 
_atom_site_fract_y 
_atom_site_fract_z 
_atom_site_charge 
O1          O  0.36639178  0.13717614  0.16523632    -0.81200
O2          O  0.43608197  0.04298137  0.19098759    -0.65900
O3          O  0.41557453  0.11448615  0.16786574    -1.12500
C4          C  0.35249288  0.03100796  0.10772674     1.05700
O5          O  0.44820394  0.03807336  0.15309335    -0.79100
O6          O  0.43186323  0.06119912  0.11147203    -0.66700
Ni7        Ni  0.39641221  0.13318420  0.18934402     1.34900
C8          C  0.43981356  0.09299987  0.10777466     0.84400
O9          O  0.45541511  0.10736833  0.20565473    -0.79700
O10         O  0.42485659  0.13270363  0.21620007    -0.89900
C11         C  0.45068054  0.03340378  0.17577116     0.84000
O12         O  0.35897088  0.08860108  0.20042856    -0.68100
O13         O  0.36425693  0.01204929  0.11742544    -0.87400
C14         C  0.36328449  0.06509626  0.21148868     0.84800
C15         C  0.44756050  0.12337369  0.22081637     1.06400
H16         H  0.37143437  0.03476899  0.16426832     0.38200
O17         O  0.39335289  0.05170260  0.15640057    -1.10100
O18         O  0.42757823  0.10761530  0.12075300    -0.66700
Ni19       Ni  0.38664554  0.08787762  0.14186320     1.26300
O20         O  0.38734839  0.05872523  0.20528575    -0.67000
O21         O  0.35885961  0.06025969  0.11578816    -0.79200
C22         C  0.36617882  0.13899029  0.14214335     0.84200
O23         O  0.37893063  0.12488521  0.12928455    -0.66400
Ni24       Ni  0.40557476  0.02574572  0.13619185     1.27400
Ni25       Ni  0.42494352  0.07887673  0.18091882     1.26100
H26         H  0.43720699  0.13384498  0.16120723     0.38700
C27         C  0.48038326  0.12485356  0.36429694     0.79900
N28         N  0.98581060  0.09320519  0.36985825    -0.78400
C29         C  0.98985708  0.07624551  0.35152987     0.82300
N30         N  0.98573542  0.08528914  0.32836836    -0.78400
C31         C  0.48044006  0.11655906  0.32221836     0.82400
N32         N  0.47689393  0.13400702  0.34072714    -0.80100
C33         C  0.35348541  0.04495511  0.35242673     0.79900
N34         N  0.33914902  0.04377431  0.33009595    -0.78400
C35         C  0.35291814  0.03712358  0.31044978     0.82300
N36         N  0.38013950  0.03145035  0.31347214    -0.78400
C37         C  0.39367433  0.53371410  0.33362861     0.82400
N38         N  0.37933083  0.54001771  0.35285153    -0.80100
C39         C  0.03756032  0.18270214  0.98213806     0.79900
N40         N  0.01668456  0.16149890  0.00097907    -0.78400
C41         C  0.02666329  0.16992610  0.02429996     0.82300
N42         N  0.05752188  0.19916331  0.02842655    -0.78400
C43         C  0.07868244  0.22013584  0.00985853     0.82400
N44         N  0.06821620  0.21179980  0.98680591    -0.80100
C45         C  0.33697203  0.55060709  0.00194454     0.79900
N46         N  0.33179270  0.57787273  0.99562134    -0.78400
C47         C  0.32832754  0.58602685  0.97202455     0.82300
N48         N  0.32912870  0.56577675  0.95468284    -0.78400
C49         C  0.33422899  0.53835220  0.96052095     0.82400
N50         N  0.33844269  0.53096492  0.98425077    -0.80100
O51         O  0.22238917  0.31700854  0.49973589    -0.81200
O52         O  0.28945049  0.22000637  0.52785368    -0.65900
O53         O  0.26648241  0.28892092  0.50230362    -1.12500
C54         C  0.21428100  0.20715533  0.44116427     1.05700
O55         O  0.31121459  0.22202110  0.49191443    -0.79100
O56         O  0.30224154  0.25362383  0.45212179    -0.66700
Ni57       Ni  0.24711286  0.30678839  0.52481454     1.34900
C58         C  0.29768131  0.27889606  0.44525238     0.84400
O59         O  0.30641160  0.28407142  0.54049229    -0.79700
O60         O  0.26985127  0.30055154  0.55353929    -0.89900
C61         C  0.30695613  0.21202537  0.51416171     0.84000
O62         O  0.20789820  0.26112391  0.53135577    -0.68100
O63         O  0.23785875  0.19934428  0.44646961    -0.87400
C64         C  0.21076006  0.23583683  0.54108314     0.84800
C65         C  0.29393534  0.29310872  0.55733197     1.06400
H66         H  0.23024661  0.20671318  0.49763478     0.38200
O67         O  0.25065779  0.22726101  0.49066562    -1.10100
O68         O  0.27362797  0.28347354  0.45376531    -0.66700
Ni69       Ni  0.23615116  0.25868066  0.47764505     1.26300
O70         O  0.23762894  0.23247983  0.53785006    -0.67000
O71         O  0.20796507  0.22738012  0.45325488    -0.79200
C72         C  0.21287972  0.30951306  0.47800496     0.84200
O73         O  0.21905616  0.28918946  0.46622507    -0.66400
Ni74       Ni  0.27330210  0.21105486  0.47013732     1.27400
Ni75       Ni  0.27818076  0.25508869  0.51588514     1.26100
H76         H  0.28723831  0.30849181  0.49481873     0.38700
O77         O  0.25939327  0.36440787  0.82190122    -0.81200
O78         O  0.41456920  0.44975729  0.79564612    -0.65900
O79         O  0.32874188  0.38059701  0.82701962    -1.12500
C80         C  0.35055093  0.46728237  0.88085911     1.05700
O81         O  0.43978501  0.46253125  0.83166920    -0.79100
O82         O  0.40111284  0.42531877  0.87081054    -0.66700
Ni83       Ni  0.28973773  0.34971289  0.80888651     1.34900
C84         C  0.37291828  0.40298333  0.88161047     0.84400
O85         O  0.36874046  0.38209547  0.78649144    -0.79700
O86         O  0.31729397  0.33285532  0.79463935    -0.89900
C87         C  0.44165970  0.46513340  0.80862472     0.84000
O88         O  0.29726908  0.38004467  0.78060804    -0.68100
O89         O  0.38213407  0.47456684  0.87746087    -0.87400
C90         C  0.31972960  0.41186245  0.77502224     0.84800
C91         C  0.34578241  0.35042258  0.78248315     1.06400
H92         H  0.36803086  0.46367483  0.82410718     0.38200
O93         O  0.37001473  0.44513383  0.83283364    -1.10100
O94         O  0.34285256  0.39688893  0.87443868    -0.66700
Ni95       Ni  0.32543481  0.41294057  0.84721569     1.26300
O96         O  0.34708431  0.42928417  0.78736278    -0.67000
O97         O  0.32536709  0.44708550  0.86747936    -0.79200
C98         C  0.25355232  0.36539330  0.84421147     0.84200
O99         O  0.27859251  0.37971497  0.85899726    -0.66400
Ni100      Ni  0.40892029  0.46708452  0.85349287     1.27400
Ni101      Ni  0.37063870  0.41403797  0.81009009     1.26100
H102        H  0.33461267  0.36573305  0.83714601     0.38700
C103        C  0.34011466  0.27987864  0.69646405     0.79900
N104        N  0.32613083  0.28414243  0.67515821    -0.78400
C105        C  0.32723604  0.26761538  0.65526240     0.82300
N106        N  0.34368857  0.24863564  0.65676494    -0.78400
C107        C  0.35839110  0.24492634  0.67747403     0.82400
N108        N  0.35620353  0.26047381  0.69731356    -0.80100
C109        C  0.29054525  0.00608389  0.65474160     0.79900
N110        N  0.29402295  0.47304632  0.66795876    -0.78400
C111        C  0.29291056  0.47955245  0.69173781     0.82300
N112        N  0.28849925  0.01874226  0.70206296    -0.78400
C113        C  0.28926268  0.04194660  0.68464345     0.82400
N114        N  0.29028260  0.03523822  0.66104805    -0.80100
C115        C  0.34553098  0.37754575  0.02107747     0.79900
N116        N  0.31120786  0.36845667  0.02092379    -0.78400
C117        C  0.29374601  0.36303648  0.99978122     0.82300
N118        N  0.31077607  0.36554893  0.97894693    -0.78400
C119        C  0.34453211  0.37335241  0.97869934     0.82400
N120        N  0.36234123  0.37982340  0.99985009    -0.80100
O121        O  0.09658250  0.28178862  0.49669954    -0.81200
O122        O  0.43542177  0.22049845  0.52385416    -0.65900
O123        O  0.02504559  0.23655421  0.50072587    -1.12500
C124        C  0.99066786  0.27839354  0.43102207     1.05700
O125        O  0.41299465  0.19787681  0.48887897    -0.79100
O126        O  0.45574671  0.19852766  0.45421286    -0.66700
Ni127      Ni  0.06369256  0.25677538  0.52247755     1.34900
C128        C  0.48515286  0.20525733  0.44567160     0.84400
O129        O  0.47961283  0.20097891  0.54156456    -0.79700
O130        O  0.03709218  0.23395877  0.55199527    -0.89900
C131        C  0.40914518  0.20221130  0.51093215     0.84000
O132        O  0.05734345  0.29574583  0.52673608    -0.68100
O133        O  0.46955986  0.26296160  0.43682931    -0.87400
C134        C  0.03039372  0.29248344  0.53737469     0.84800
C135        C  0.50206932  0.21079532  0.55815387     1.06400
H136        H  0.48195058  0.27724987  0.49011563     0.38200
O137        O  0.48183930  0.25628915  0.48556834    -1.10100
O138        O  0.01107163  0.22685581  0.45150503    -0.66700
Ni139      Ni  0.02319051  0.26483040  0.47273256     1.26300
O140        O  0.50106530  0.27053100  0.53436993    -0.67000
O141        O  0.01726352  0.28976648  0.44492934    -0.79200
C142        C  0.09783157  0.29066398  0.47434386     0.84200
O143        O  0.07085734  0.28316033  0.46177032    -0.66400
Ni144      Ni  0.44358252  0.23194518  0.46415363     1.27400
Ni145      Ni  0.48110602  0.22961829  0.51399304     1.26100
H146        H  0.02329849  0.21526930  0.49527265     0.38700
O147        O  0.37340213  0.24732259  0.16590290    -0.81200
O148        O  0.45946947  0.40810074  0.19184148    -0.65900
O149        O  0.39319696  0.31824806  0.16855147    -1.12500
C150        C  0.48323923  0.35277706  0.10816949     1.05700
O151        O  0.46423383  0.43119880  0.15469710    -0.79100
O152        O  0.44456317  0.39757439  0.11299456    -0.66700
Ni153      Ni  0.37471864  0.27753195  0.19040083     1.34900
C154        C  0.41455738  0.37175462  0.10909540     0.84400
O155        O  0.39501566  0.35857411  0.20616646    -0.77300
O156        O  0.37232088  0.30192911  0.21759290    -0.89900
C157        C  0.46867117  0.43478854  0.17734114     0.84000
O158        O  0.41914755  0.28511192  0.20118681    -0.68100
O159        O  0.49714487  0.38325301  0.11644455    -0.87400
C160        C  0.44350179  0.31306060  0.20964632     0.84800
C161        C  0.37980459  0.33300998  0.22177760     1.06400
H162        H  0.47370927  0.35960955  0.16312676     0.38200
O163        O  0.45582953  0.36368389  0.15601758    -1.10100
O164        O  0.40196691  0.34248827  0.12125021    -0.66700
Ni165      Ni  0.42262245  0.32135576  0.14196857     1.26300
O166        O  0.44738158  0.34335022  0.20410343    -0.67000
O167        O  0.45377782  0.32676570  0.11557475    -0.79200
C168        C  0.37269511  0.24849052  0.14279792     0.84200
O169        O  0.38801778  0.27716976  0.12987916    -0.66400
Ni170      Ni  0.47987375  0.40571776  0.13615824     1.27400
Ni171      Ni  0.42609102  0.36215283  0.18127661     1.26100
H172        H  0.37359487  0.32014230  0.16232109     0.38700
C173        C  0.39097746  0.37290198  0.31992225     0.79900
N174        N  0.37532686  0.35180905  0.34010015    -0.78400
C175        C  0.37978506  0.36581151  0.36217508     0.82300
N176        N  0.39919041  0.40121423  0.36359872    -0.78400
C177        C  0.41515528  0.42245074  0.34353861     0.82400
N178        N  0.41087397  0.40783007  0.32197969    -0.80100
C179        C  0.02347774  0.29721684  0.32899871     0.79900
N180        N  0.05656561  0.30448334  0.32441642    -0.78400
C181        C  0.06858161  0.30711807  0.30148006     0.82300
N182        N  0.04670298  0.30254074  0.28271404    -0.78400
C183        C  0.01294716  0.29423240  0.28682362     0.82400
N184        N  0.51771753  0.30359295  0.31139296    -0.80100
O185        O  0.28774062  0.10028651  0.48837415    -0.81200
O186        O  0.21009012  0.43383738  0.45930341    -0.65900
O187        O  0.23846229  0.02824867  0.48766961    -1.12500
C188        C  0.28512056  0.99226686  0.55261233     1.05700
O189        O  0.18728709  0.40908618  0.49508296    -0.79100
O190        O  0.19346441  0.44797697  0.53265433    -0.66700
Ni191      Ni  0.25854202  0.06848323  0.46490367     1.34900
C192        C  0.20525552  0.98223386  0.54420154     0.84400
O193        O  0.19294824  0.48216225  0.44536627    -0.79700
O194        O  0.23160508  0.04369432  0.43778911    -0.89900
C195        C  0.19316593  0.40650267  0.47310679     0.84000
O196        O  0.29516419  0.06044223  0.45514554    -0.68100
O197        O  0.25666675  0.45513992  0.54317396    -0.87400
C198        C  0.28928433  0.03271649  0.44518523     0.84800
C199        C  0.20482593  0.50650172  0.42874714     1.06400
H200        H  0.26797071  0.47395608  0.48974779     0.38200
O201        O  0.24816690  0.47464833  0.49642637    -1.10100
O202        O  0.23231382  0.01079720  0.53707299    -0.66700
Ni203      Ni  0.26856847  0.02495703  0.51254501     1.26300
O204        O  0.26092060  0.49887375  0.44840470    -0.67000
O205        O  0.29623571  0.01854273  0.53725719    -0.79200
C206        C  0.29562149  0.09987523  0.51049926     0.84200
O207        O  0.28663268  0.07173122  0.52330783    -0.66400
Ni208      Ni  0.22328233  0.43415128  0.51805922     1.27400
Ni209      Ni  0.22109535  0.47857798  0.47073513     1.26100
H210        H  0.21811768  0.02683876  0.49516907     0.38700
O211        O  0.05334055  0.08265324  0.83079745    -0.81200
O212        O  0.12253565  0.23982272  0.85187753    -0.65900
O213        O  0.05736266  0.14851171  0.83080713    -1.12500
C214        C  0.12198696  0.17744073  0.75960116     1.05700
O215        O  0.14002780  0.26758425  0.81518206    -0.79100
O216        O  0.08545642  0.22576335  0.78612134    -0.66700
Ni217      Ni  0.03989887  0.10756598  0.85204015     1.34900
C218        C  0.06095218  0.19725382  0.77844228     0.84400
O219        O  0.06061987  0.18737266  0.87000380    -0.79700
O220        O  0.02487050  0.12875230  0.87489139    -0.89900
C221        C  0.13901947  0.26767336  0.83819060     0.84000
O222        O  0.08024534  0.12017741  0.87139496    -0.68100
O223        O  0.12791092  0.20814739  0.76325338    -0.87400
C224        C  0.10667952  0.14956575  0.87569061     0.84800
C225        C  0.03718338  0.15980567  0.88192856     1.06400
H226        H  0.13822926  0.19547591  0.81985958     0.38200
O227        O  0.11757132  0.19600675  0.81443516    -1.10100
O228        O  0.05924626  0.16765799  0.78299158    -0.66700
Ni229      Ni  0.08439897  0.15072150  0.80358698     1.26300
O230        O  0.11508398  0.17769254  0.86292333    -0.67000
O231        O  0.11254075  0.15394268  0.77666826    -0.79200
C232        C  0.04443544  0.07816106  0.80871394     0.84200
O233        O  0.05056891  0.10429696  0.79452646    -0.66400
Ni234      Ni  0.13199754  0.23475064  0.79096885     1.27400
Ni235      Ni  0.08961871  0.19324648  0.84214358     1.26100
H236        H  0.03711098  0.14964850  0.82514093     0.38700
C237        C  0.09862163  0.14144516  0.65958227     0.79900
N238        N  0.07352992  0.10826058  0.65520777    -0.78400
C239        C  0.06728472  0.09679130  0.63235648     0.82300
N240        N  0.08670855  0.11936759  0.61363093    -0.78400
C241        C  0.11181735  0.15271468  0.61765176     0.82400
N242        N  0.11801700  0.16345855  0.64069168    -0.80100
C243        C  0.45357122  0.18029263  0.65882356     0.79900
N244        N  0.41872861  0.16635611  0.66297012    -0.78400
C245        C  0.40511666  0.15959916  0.68584002     0.82300
N246        N  0.42678420  0.16564255  0.70492005    -0.78400
C247        C  0.46175286  0.17954854  0.70120497     0.82400
N248        N  0.98312447  0.19333176  0.67809779    -0.80100
O249        O  0.07642351  0.05613007  0.15080891    -0.81200
O250        O  0.23558603  0.12632432  0.12606294    -0.65900
O251        O  0.14283287  0.06211668  0.15152403    -1.12500
C252        C  0.16771054  0.13272202  0.21686557     1.05700
O253        O  0.26018511  0.15043559  0.16072932    -0.79100
O254        O  0.21940630  0.09765554  0.19407836    -0.66700
Ni255      Ni  0.10296034  0.04221307  0.13122036     1.34900
C256        C  0.19165806  0.07342409  0.20462660     0.84400
O257        O  0.18423662  0.06352509  0.11285298    -0.79700
O258        O  0.12603466  0.02730512  0.10947064    -0.89900
C259        C  0.26232570  0.14535110  0.13864319     0.84000
O260        O  0.11520569  0.08155700  0.10941018    -0.68100
O261        O  0.19871209  0.14012544  0.21207132    -0.87400
C262        C  0.14404640  0.10865507  0.10332116     0.84800
C263        C  0.15761130  0.04017178  0.10187808     1.06400
H264        H  0.18649636  0.14344650  0.15507725     0.38200
O265        O  0.18808064  0.12402354  0.16269690    -1.10100
O266        O  0.16111111  0.06877314  0.19976835    -0.66700
Ni267      Ni  0.14270768  0.09039407  0.17647175     1.26300
O268        O  0.17268159  0.11741909  0.11423561    -0.67000
O269        O  0.14355942  0.11956002  0.20136632    -0.79200
C270        C  0.07026534  0.04792235  0.17332313     0.84200
O271        O  0.09569736  0.05576190  0.18766642    -0.66400
Ni272      Ni  0.22622120  0.14290224  0.18472702     1.27400
Ni273      Ni  0.18798596  0.09419560  0.13787955     1.26100
H274        H  0.14423358  0.04256633  0.15910238     0.38700
C275        C  0.13518473  0.11434418  0.31877038     0.79900
N276        N  0.10768039  0.08251388  0.32566388    -0.78400
C277        C  0.09830309  0.07303973  0.34942588     0.82300
N278        N  0.11681352  0.09629840  0.36628596    -0.78400
C279        C  0.14442693  0.12818847  0.35979092     0.82400
N280        N  0.15376404  0.13725394  0.33594013    -0.80100
C281        C  0.19275906  0.46828952  0.32896370     0.79900
N282        N  0.20556138  0.00916020  0.31324454    -0.78400
C283        C  0.20886351  0.00168334  0.29005201     0.82300
N284        N  0.19097442  0.44807678  0.28301275    -0.78400
C285        C  0.18650684  0.42542984  0.30217873     0.82400
N286        N  0.18742151  0.43589153  0.32500692    -0.80100
C287        C  0.15623266  0.19078148  0.96975946     0.79900
N288        N  0.17009624  0.22603529  0.97087694    -0.78400
C289        C  0.17499712  0.24070194  0.99261565     0.82300
N290        N  0.16658234  0.21985115  0.01315480    -0.78400
C291        C  0.15329408  0.18489898  0.01260646     0.82400
N292        N  0.14778017  0.17015453  0.99076155    -0.80100
O293        O  0.16021926  0.39122405  0.81581035    -0.81200
O294        O  0.06932560  0.46504099  0.79167391    -0.65900
O295        O  0.13636423  0.43995838  0.81611568    -1.12500
C296        C  0.06013903  0.37863486  0.88102007     1.05700
O297        O  0.03945850  0.45618038  0.82618085    -0.79100
O298        O  0.09006166  0.46746782  0.85868855    -0.66700
Ni299      Ni  0.16057177  0.42705625  0.79396095     1.34900
C300        C  0.11467485  0.46493194  0.86906222     0.84400
O301        O  0.13553681  0.48734139  0.78054349    -0.79700
O302        O  0.16450492  0.46106984  0.76889156    -0.89900
C303        C  0.04745400  0.46831397  0.80448048     0.84000
O304        O  0.11932333  0.39264684  0.77914867    -0.68100
O305        O  0.05034181  0.40092061  0.87697974    -0.87400
C306        C  0.09695365  0.39848299  0.76835151     0.84800
C307        C  0.15358352  0.48266522  0.76489062     1.06400
H308        H  0.05404096  0.39513245  0.81831926     0.38200
O309        O  0.07119259  0.41524070  0.82660236    -1.10100
O310        O  0.12203307  0.44116614  0.86427078    -0.66700
Ni311      Ni  0.10583993  0.40531311  0.84029633     1.26300
O312        O  0.08772629  0.41943667  0.77651794    -0.67000
O313        O  0.07484521  0.37118758  0.86454496    -0.79200
C314        C  0.15590947  0.38361975  0.83852078     0.84200
O315        O  0.14063105  0.39444492  0.85202383    -0.66400
Ni316      Ni  0.04742963  0.42793552  0.84958504     1.27400
Ni317      Ni  0.10280167  0.45164129  0.80307950     1.26100
H318        H  0.15403046  0.46011214  0.82409062     0.38700
C319        C  0.03524552  0.32371687  0.63489010     0.79900
N320        N  0.50335333  0.29140782  0.64357072    -0.78400
C321        C  0.49267470  0.28001206  0.66674863     0.82300
N322        N  0.01855692  0.30592313  0.68272849    -0.78400
C323        C  0.04858435  0.33573789  0.67619886     0.82400
N324        N  0.05716827  0.34527192  0.65199602    -0.80100
C325        C  0.12730666  0.48183293  0.62437310     0.79900
N326        N  0.10114159  0.98263211  0.62512389    -0.78400
C327        C  0.08457046  0.98924155  0.64280023     0.82300
N328        N  0.09836266  0.99500276  0.66534466    -0.78400
C329        C  0.12435692  0.49391234  0.66515854     0.82400
N330        N  0.14104065  0.48799304  0.64697926    -0.80100
C331        C  0.57736145  0.35656265  0.98556977     0.79900
N332        N  0.55761625  0.35785225  0.00385373    -0.78400
C333        C  0.56556763  0.35454437  0.02745266     0.82300
N334        N  0.59268803  0.34905567  0.03254132    -0.78400
C335        C  0.61226707  0.34722140  0.01460112     0.82400
N336        N  0.60443314  0.35134063  0.99123291    -0.80100
C337        C  0.18455974  0.05255760  0.00065900     0.79900
N338        N  0.21496284  0.08298602  0.99609088    -0.78400
C339        C  0.22601155  0.09643111  0.97312155     0.82300
N340        N  0.20581226  0.07875187  0.95440224    -0.78400
C341        C  0.17542605  0.04801511  0.95837720     0.82400
N342        N  0.16485852  0.03463934  0.98165790    -0.80100
C343        C  0.47201647  0.01762745  0.18334276     0.79900
N344        N  0.46484983  0.48660207  0.18531623    -0.78400
C345        C  0.48453100  0.47068812  0.18570630     0.82300
N346        N  0.01963820  0.48789134  0.18353803    -0.78400
C347        C  0.03306374  0.02742703  0.18153005     0.82400
N348        N  0.01215783  0.04220321  0.17981916    -0.80100
C349        C  0.32225951  0.19058828  0.52271788     0.79900
N350        N  0.35768633  0.20546300  0.52158739    -0.78400
C351        C  0.37298804  0.18537455  0.52050536     0.82300
N352        N  0.35226114  0.15001911  0.51918818    -0.78400
C353        C  0.31674938  0.13455880  0.52052495     0.82400
N354        N  0.30208680  0.15524656  0.52158820    -0.80100
C355        C  0.19117131  0.32332992  0.46739434     0.79900
N356        N  0.15609852  0.30100474  0.46643908    -0.78400
C357        C  0.13330620  0.31329582  0.46431797     0.82300
N358        N  0.14606927  0.34849278  0.46412216    -0.78400
C359        C  0.18108124  0.37125546  0.46489141     0.82400
N360        N  0.20330366  0.35835737  0.46734356    -0.80100
C361        C  0.03008602  0.48757530  0.79552000     0.79900
N362        N  0.49678152  0.46969490  0.79817246    -0.78400
C363        C  0.47718873  0.48561465  0.79827658     0.82300
N364        N  0.49150662  0.02185980  0.80096782    -0.78400
C365        C  0.02694777  0.04218093  0.80025302     0.82400
N366        N  0.04499672  0.02461453  0.80022850    -0.80100
C367        C  0.16818470  0.36000742  0.84831959     0.79900
N368        N  0.20329015  0.37295623  0.84997625    -0.78400
C369        C  0.21674833  0.35110762  0.85150941     0.82300
N370        N  0.19473610  0.31604658  0.84996124    -0.78400
C371        C  0.15953606  0.30244367  0.84832739     0.82400
N372        N  0.14663553  0.32481667  0.84674654    -0.80100
C373        C  0.35067268  0.15908049  0.13115097     0.79900
N374        N  0.31510960  0.14321364  0.13000924    -0.78400
C375        C  0.29865452  0.16246115  0.12902307     0.82300
N376        N  0.31844309  0.19791453  0.13068572    -0.78400
C377        C  0.35400504  0.21428641  0.13173054     0.82400
N378        N  0.36961667  0.19443259  0.13256338    -0.80100
C379        C  0.13872167  0.49987071  0.69015945    -0.05800
C380        C  0.16416182  0.49079853  0.69674095    -0.33200
C381        C  0.17321352  0.48965776  0.72109154     0.36000
C382        C  0.15655608  0.49751993  0.73952512    -0.06100
C383        C  0.13484942  0.51122956  0.73249279    -0.33100
C384        C  0.12604752  0.51262417  0.70813145     0.35900
H385        H  0.17564223  0.48243690  0.68323442     0.16300
O386        O  0.19700370  0.47900587  0.72674196    -0.60600
H387        H  0.12992207  0.02846936  0.74886981     0.16300
O388        O  0.11072978  0.03092589  0.70489054    -0.60700
H389        H  0.12664490  0.05527604  0.69841754     0.43300
H390        H  0.18459207  0.45342165  0.72446522     0.43300
C391        C  0.08447515  0.38304928  0.74410152    -0.05800
C392        C  0.09466514  0.35973723  0.73566285    -0.33200
C393        C  0.08650897  0.34723946  0.71223733     0.36000
C394        C  0.06811490  0.35802986  0.69631336    -0.06100
C395        C  0.05852140  0.38184007  0.70430658    -0.33100
C396        C  0.06668648  0.39450313  0.72779449     0.35900
H397        H  0.10879223  0.35069407  0.74736685     0.16300
O398        O  0.09469926  0.32261994  0.70559351    -0.60600
H399        H  0.04291721  0.38920896  0.69274978     0.16300
O400        O  0.05620269  0.41727813  0.73475393    -0.60700
H401        H  0.07397388  0.44057796  0.72762962     0.43300
H402        H  0.11771192  0.33618459  0.69706176     0.43300
C403        C  0.13199649  0.48732624  0.88964914    -0.05800
C404        C  0.13826275  0.47220111  0.91086188    -0.33200
C405        C  0.14985329  0.49078371  0.93201450     0.36000
C406        C  0.15843865  0.02694361  0.93717324    -0.06100
C407        C  0.15563585  0.04357011  0.91543969    -0.33100
C408        C  0.13777312  0.52177859  0.88988523     0.35900
H409        H  0.13323716  0.44546354  0.91127697     0.16300
O410        O  0.15617388  0.47532219  0.95221948    -0.60600
H411        H  0.16325628  0.07109604  0.91484300     0.16300
O412        O  0.14032094  0.04195985  0.87349203    -0.60700
H413        H  0.11861824  0.04309325  0.87565341     0.43300
H414        H  0.18046112  0.48003200  0.94996493     0.43300
C415        C  0.05831572  0.36549720  0.90668497    -0.05800
C416        C  0.03568031  0.36792729  0.92335066    -0.33200
C417        C  0.03903320  0.36409013  0.94853935     0.36000
C418        C  0.06553390  0.35780271  0.95764496    -0.06100
C419        C  0.08704405  0.35385813  0.94085126    -0.33100
C420        C  0.08384165  0.35788036  0.91580725     0.35900
H421        H  0.01614004  0.37432726  0.91685607     0.16300
O422        O  0.01733572  0.36822179  0.96392564    -0.60600
H423        H  0.59681199  0.33211167  0.94816238     0.16300
O424        O  0.10736863  0.35646242  0.90054643    -0.60700
H425        H  0.12888253  0.37975493  0.90102220     0.43300
H426        H  0.99625186  0.34464040  0.96615779     0.43300
C427        C  0.16277223  0.03112381  0.07715323    -0.05800
C428        C  0.13481828  0.01961427  0.06070208    -0.33200
C429        C  0.14095666  0.02356218  0.03549144     0.36000
C430        C  0.17539044  0.03887335  0.02632746    -0.06100
C431        C  0.20257194  0.04581997  0.04271612    -0.33100
C432        C  0.19645057  0.04172216  0.06787175     0.35900
H433        H  0.10845078  0.01077165  0.06717249     0.16300
O434        O  0.11355137  0.01533884  0.02012701    -0.60600
H435        H  0.22917455  0.05644333  0.03600821     0.16300
O436        O  0.22413450  0.05079654  0.08309563    -0.60700
H437        H  0.22296994  0.02833326  0.08830114     0.43300
H438        H  0.11152170  0.03676673  0.01832405     0.43300
C439        C  0.14922358  0.16483125  0.03591759    -0.05800
C440        C  0.17014642  0.18277569  0.05553368    -0.33200
C441        C  0.16812889  0.16519694  0.07782681     0.36000
C442        C  0.14452138  0.12907934  0.08106387    -0.06100
C443        C  0.12307136  0.11115941  0.06165784    -0.33100
C444        C  0.12559259  0.12864693  0.03913601     0.35900
H445        H  0.18887002  0.21059569  0.05351156     0.16300
O446        O  0.18969199  0.18349591  0.09618501    -0.60600
H447        H  0.10511804  0.08314359  0.06365444     0.16300
O448        O  0.10445636  0.11025542  0.02063932    -0.60700
H449        H  0.11686764  0.09965445  0.01289336     0.43300
H450        H  0.17716384  0.19349989  0.10452430     0.43300
C451        C  0.19547575  0.05315375  0.22562064    -0.05800
C452        C  0.17373140  0.04535069  0.24617228    -0.33200
C453        C  0.17899980  0.03025122  0.26764632     0.36000
C454        C  0.20615418  0.02222513  0.26886464    -0.06100
C455        C  0.22787654  0.02982975  0.24834019    -0.33100
C456        C  0.22309728  0.04570084  0.22698109     0.35900
H457        H  0.15301957  0.05182390  0.24583427     0.16300
O458        O  0.15159453  0.51036385  0.28520070    -0.60600
H459        H  0.24864260  0.02343351  0.24889678     0.16300
O460        O  0.24560796  0.05389381  0.20762347    -0.60700
H461        H  0.23494043  0.03277271  0.19797394     0.43300
H462        H  0.12956064  0.48794319  0.28319860     0.43300
C463        C  0.14321020  0.12435794  0.29266613    -0.05800
C464        C  0.17808912  0.14358477  0.28466214    -0.33200
C465        C  0.18648273  0.14933645  0.25987334     0.36000
C466        C  0.15959877  0.13563329  0.24242340    -0.06100
C467        C  0.12462559  0.11916726  0.25055203    -0.33100
C468        C  0.11632177  0.11335071  0.27544309     0.35900
H469        H  0.19904223  0.15266928  0.29766920     0.16300
O470        O  0.22120424  0.16643683  0.25309858    -0.60600
H471        H  0.10351440  0.10892864  0.23768662     0.16300
O472        O  0.08184252  0.09704491  0.28279199    -0.60700
H473        H  0.07177766  0.07221793  0.27877501     0.43300
H474        H  0.22756031  0.19126264  0.24972613     0.43300
C475        C  0.04916039  0.05835667  0.62953789    -0.05800
C476        C  0.03576771  0.03594072  0.65060411    -0.33200
C477        C  0.04122379  0.00730411  0.65404994     0.36000
C478        C  0.05929306  0.00096542  0.63597693    -0.06100
C479        C  0.06225838  0.01665538  0.61255975    -0.33100
C480        C  0.05688428  0.04526308  0.60915960     0.35900
H481        H  0.02652225  0.04368745  0.66589888     0.16300
O482        O  0.03225685  0.98803089  0.67585142    -0.60600
H483        H  0.07384096  0.01058406  0.59772169     0.16300
O484        O  0.06535257  0.06358162  0.58704365    -0.60700
H485        H  0.04292159  0.05413343  0.57831576     0.43300
H486        H  0.04630044  0.00462832  0.68829517     0.43300
C487        C  0.03552546  0.19848687  0.76129656    -0.05800
C488        C  0.00160599  0.16951871  0.76070914    -0.33200
C489        C  0.47450588  0.15806063  0.74105732     0.36000
C490        C  0.99100665  0.19260324  0.72242334    -0.06100
C491        C  0.02442021  0.22223150  0.72338141    -0.33100
C492        C  0.04657643  0.22545417  0.74271972     0.35900
H493        H  0.99281263  0.14839624  0.77463808     0.16300
O494        O  0.44246509  0.12800371  0.74100111    -0.60600
H495        H  0.03364390  0.24253886  0.70883381     0.16300
O496        O  0.07970228  0.25404099  0.74248473    -0.60700
H497        H  0.09431210  0.24731640  0.73314806     0.43300
H498        H  0.44614864  0.11156510  0.73156728     0.43300
C499        C  0.10789801  0.15138379  0.68498536    -0.05800
C500        C  0.09791349  0.12483030  0.70357167    -0.33200
C501        C  0.10510099  0.13289813  0.72785318     0.36000
C502        C  0.12198164  0.16819154  0.73414942    -0.06100
C503        C  0.13372385  0.19479406  0.71542478    -0.33100
C504        C  0.12708018  0.18668562  0.69107127     0.35900
H505        H  0.08405969  0.09745640  0.69937970     0.16300
O506        O  0.09344019  0.10586573  0.74528604    -0.60600
H507        H  0.14689061  0.22213653  0.71967024     0.16300
O508        O  0.13768597  0.21354016  0.67359010    -0.60700
H509        H  0.16242213  0.22085710  0.66981416     0.43300
H510        H  0.11253339  0.10021381  0.74686048     0.43300
C511        C  0.12561828  0.15268793  0.89871680    -0.05800
C512        C  0.15820387  0.18283794  0.90181724    -0.33200
C513        C  0.17005148  0.19424666  0.92510360     0.36000
C514        C  0.14928579  0.17523211  0.94574903    -0.06100
C515        C  0.11920537  0.14270767  0.94278867    -0.33100
C516        C  0.10734754  0.13126724  0.91956002     0.35900
H517        H  0.17318280  0.19925196  0.88614262     0.16300
O518        O  0.20152162  0.22442682  0.92752319    -0.60600
H519        H  0.10314718  0.12740520  0.95843230     0.16300
O520        O  0.07554624  0.10138470  0.91762996    -0.60700
H521        H  0.08075720  0.08192281  0.91866733     0.43300
H522        H  0.19894159  0.24341298  0.91902457     0.43300
C523        C  0.18116025  0.47871356  0.56128885    -0.05800
C524        C  0.20443870  0.99939531  0.58599163    -0.33200
C525        C  0.18714264  0.99754156  0.60759954     0.36000
C526        C  0.14686595  0.47962169  0.60386164    -0.06100
C527        C  0.13010014  0.45189095  0.58841877    -0.33100
C528        C  0.14709787  0.45102214  0.56740585     0.35900
H529        H  0.23281914  0.01375554  0.58535024     0.16300
O530        O  0.20655352  0.01536980  0.62689711    -0.60600
H531        H  0.10372048  0.43081075  0.59269493     0.16300
O532        O  0.13026400  0.42290867  0.55314052    -0.60700
H533        H  0.11430923  0.42778702  0.54297771     0.43300
H534        H  0.21483001  0.00008228  0.63475186     0.43300
C535        C  0.19569004  0.49773684  0.40293766    -0.05800
C536        C  0.18258084  0.97159010  0.40019113    -0.33200
C537        C  0.18285912  0.96491378  0.37571204     0.36000
C538        C  0.19178181  0.47814318  0.35423433    -0.06100
C539        C  0.20927362  0.51359706  0.35961529    -0.33100
C540        C  0.21134743  0.52350959  0.38356884     0.35900
H541        H  0.17303076  0.94973560  0.41358002     0.16300
O542        O  0.16886065  0.93075488  0.36965230    -0.60600
H543        H  0.22266269  0.53382222  0.34530824     0.16300
O544        O  0.23051111  0.55847523  0.38784545    -0.60700
H545        H  0.21365696  0.56714619  0.38644386     0.43300
H546        H  0.18518302  0.92310257  0.37618600     0.43300
C547        C  0.17018727  0.38736984  0.29839844    -0.05800
C548        C  0.15442817  0.37503771  0.27601710    -0.33200
C549        C  0.12266646  0.34333297  0.27545284     0.36000
C550        C  0.10705073  0.32431197  0.29749568    -0.06100
C551        C  0.12830928  0.33156996  0.31805220    -0.33100
C552        C  0.16006708  0.36302855  0.31856291     0.35900
H553        H  0.16352893  0.39200123  0.25960893     0.16300
O554        O  0.10539172  0.33346184  0.25392634    -0.60600
H555        H  0.11813478  0.31568756  0.33485334     0.16300
O556        O  0.17773360  0.37191441  0.33998199    -0.60700
H557        H  0.19857927  0.36937482  0.33755539     0.43300
H558        H  0.09825666  0.35108070  0.24945331     0.43300
C559        C  0.50267627  0.34867430  0.08840397    -0.05800
C560        C  0.48694564  0.33798768  0.06585247    -0.33200
C561        C  0.50708329  0.34045867  0.04553145     0.36000
C562        C  0.54333704  0.35317074  0.04784040    -0.06100
C563        C  0.55853298  0.36261513  0.07071777    -0.33100
C564        C  0.53862458  0.36079834  0.09077109     0.35900
H565        H  0.45932003  0.32905287  0.06376976     0.16300
O566        O  0.01680846  0.38415817  0.02541539    -0.60600
H567        H  0.58619899  0.37199618  0.07306521     0.16300
O568        O  0.55442345  0.37059968  0.11278588    -0.60700
H569        H  0.56717069  0.39661109  0.11167767     0.43300
H570        H  0.03737094  0.40687833  0.02931357     0.43300
C571        C  0.37458967  0.34026289  0.24676961    -0.05800
C572        C  0.37050257  0.31607610  0.26608407    -0.33200
C573        C  0.37469403  0.32568637  0.29019963     0.36000
C574        C  0.38273730  0.35978258  0.29528291    -0.06100
C575        C  0.38403335  0.38287139  0.27613015    -0.33100
C576        C  0.37990236  0.37339641  0.25215610     0.35900
H577        H  0.36641127  0.29039339  0.26248756     0.16300
O578        O  0.37275149  0.30223998  0.30839381    -0.60600
H579        H  0.38910616  0.40893590  0.27963200     0.16300
O580        O  0.38306544  0.39756268  0.23410774    -0.60700
H581        H  0.35881578  0.39248999  0.23102750     0.43300
H582        H  0.39685944  0.30609135  0.30977556     0.43300
C583        C  0.46646161  0.31002938  0.22830204    -0.05800
C584        C  0.45142074  0.28363091  0.24710293    -0.33200
C585        C  0.95412518  0.27237541  0.26679337     0.36000
C586        C  0.50737172  0.30727795  0.26741381    -0.06100
C587        C  0.52261783  0.33306055  0.24827889    -0.33100
C588        C  0.50233101  0.33500231  0.22912439     0.35900
H589        H  0.90580671  0.25952352  0.24898229     0.16300
O590        O  0.93741028  0.24964647  0.28642583    -0.60600
H591        H  0.55018118  0.35253735  0.24856867     0.16300
O592        O  0.51789116  0.36111061  0.21112968    -0.60700
H593        H  0.51839658  0.38189860  0.21761018     0.43300
H594        H  0.93711542  0.22768650  0.28288720     0.43300
C595        C  0.01301905  0.29761430  0.35438872    -0.05800
C596        C  0.97886633  0.27422622  0.36264578    -0.33200
C597        C  0.97021777  0.26984217  0.38744881     0.36000
C598        C  0.99596816  0.28962912  0.40463461    -0.06100
C599        C  0.02925444  0.31544756  0.39589011    -0.33100
C600        C  0.03783464  0.31958998  0.37110478     0.35900
H601        H  0.47362800  0.27699883  0.34938860     0.16300
O602        O  0.44871910  0.26622333  0.39331078    -0.60600
H603        H  0.04944477  0.33120472  0.40842176     0.16300
O604        O  0.07111347  0.34437344  0.36358930    -0.60700
H605        H  0.06945917  0.36528150  0.35804172     0.43300
H606        H  0.44221810  0.24129751  0.39226616     0.43300
C607        C  0.49019131  0.19964814  0.58397455    -0.05800
C608        C  0.01971652  0.22055964  0.60157421    -0.33200
C609        C  0.00953507  0.21512639  0.62614295     0.36000
C610        C  0.46710530  0.18686031  0.63334538    -0.06100
C611        C  0.44359092  0.17008819  0.61463928    -0.33100
C612        C  0.45466391  0.17638682  0.59028778     0.35900
H613        H  0.04537882  0.24227305  0.59640520     0.16300
O614        O  0.03211159  0.23747289  0.64257140    -0.60600
H615        H  0.41614637  0.15210831  0.61878639     0.16300
O616        O  0.43027407  0.15981696  0.57285576    -0.60700
H617        H  0.41835447  0.17374363  0.57021723     0.43300
H618        H  0.04782693  0.22810760  0.64711322     0.43300
C619        C  0.03604535  0.31414084  0.55874175    -0.05800
C620        C  0.56846690  0.32663320  0.57522609    -0.33200
C621        C  0.56974136  0.33409998  0.59988978     0.36000
C622        C  0.04036628  0.33116950  0.60812495    -0.06100
C623        C  0.01057950  0.32392441  0.59430950    -0.33100
C624        C  0.00804255  0.31496665  0.57003272     0.35900
H625        H  0.59065997  0.32608214  0.56754267     0.16300
O626        O  0.59853660  0.34016228  0.61317538    -0.60600
H627        H  0.98760518  0.32153630  0.60315055     0.16300
O628        O  0.97723540  0.30480261  0.55808075    -0.60700
H629        H  0.96077952  0.28073777  0.56483383     0.43300
H630        H  0.59429254  0.31660630  0.61891174     0.43300
C631        C  0.25507303  0.34428222  0.99953523    -0.05800
C632        C  0.23882464  0.33568573  0.97687160    -0.33200
C633        C  0.20951982  0.30265431  0.97418107     0.36000
C634        C  0.19539119  0.27916219  0.99468239    -0.06100
C635        C  0.20588921  0.29223661  0.01787896    -0.33100
C636        C  0.23567762  0.32479722  0.02043456     0.35900
H637        H  0.25185525  0.35193133  0.96064254     0.16300
O638        O  0.19667335  0.29278468  0.95142078    -0.60600
H639        H  0.19363692  0.27578076  0.03416681     0.16300
O640        O  0.24831447  0.33436124  0.04325175    -0.60700
H641        H  0.23980194  0.35026041  0.04789761     0.43300
H642        H  0.21576046  0.29263765  0.94221084     0.43300
C643        C  0.36213240  0.37865397  0.04455751    -0.05800
C644        C  0.34372130  0.35165775  0.06241265    -0.33200
C645        C  0.35974783  0.34969129  0.08402450     0.36000
C646        C  0.39465949  0.37553398  0.08832237    -0.06100
C647        C  0.41216415  0.40380668  0.07094508    -0.33100
C648        C  0.39621527  0.40533590  0.04918079     0.35900
H649        H  0.31720719  0.33109738  0.05916916     0.16300
O650        O  0.34109378  0.32222260  0.10063474    -0.60600
H651        H  0.43888991  0.42419827  0.07371587     0.16300
O652        O  0.41431136  0.43274801  0.03243308    -0.60700
H653        H  0.40738733  0.45030375  0.03595577     0.43300
H654        H  0.34212781  0.30206688  0.09440785     0.43300
C655        C  0.30203027  0.07871284  0.69062509    -0.05800
C656        C  0.31088953  0.10329943  0.67093312    -0.33200
C657        C  0.34379709  0.13357216  0.66991167     0.36000
C658        C  0.36659925  0.14010652  0.68963136    -0.06100
C659        C  0.35244356  0.12135758  0.71192269    -0.33100
C660        C  0.31972842  0.09058117  0.71259371     0.35900
H661        H  0.29588782  0.09598652  0.65442692     0.16300
O662        O  0.35517696  0.15326746  0.64838501    -0.60600
H663        H  0.36827164  0.12763730  0.72804081     0.16300
O664        O  0.30758551  0.07014751  0.73384676    -0.60700
H665        H  0.32534822  0.06345837  0.73851302     0.43300
H666        H  0.33800863  0.16109084  0.64461525     0.43300
C667        C  0.29610747  0.00250977  0.62883686    -0.05800
C668        C  0.31203334  0.03276544  0.61302777    -0.33200
C669        C  0.31290921  0.03032870  0.58788094     0.36000
C670        C  0.29760459  0.99710499  0.57803967    -0.06100
C671        C  0.28440769  0.45825922  0.58834613    -0.33100
C672        C  0.28563325  0.45988862  0.61370788     0.35900
H673        H  0.32250229  0.05854060  0.62003965     0.16300
O674        O  0.32657972  0.06047590  0.57313272    -0.60600
H675        H  0.27171855  0.43261921  0.58089966     0.16300
O676        O  0.27105686  0.42934076  0.62803247    -0.60700
H677        H  0.29011232  0.42377724  0.63046944     0.43300
H678        H  0.30828656  0.06732509  0.57254591     0.43300
C679        C  0.38533435  0.23439313  0.67634853    -0.05800
C680        C  0.40501419  0.23707005  0.69718899    -0.33200
C681        C  0.44041708  0.24721968  0.69490972     0.36000
C682        C  0.45564781  0.25333059  0.67154262    -0.06100
C683        C  0.43356908  0.24153926  0.65152220    -0.33100
C684        C  0.39868740  0.23269531  0.65363165     0.35900
H685        H  0.39457951  0.23621421  0.71505180     0.16300
O686        O  0.46036714  0.25409352  0.71535571    -0.60600
H687        H  0.44413298  0.24347892  0.63350191     0.16300
O688        O  0.37933297  0.22640879  0.63291279    -0.60700
H689        H  0.38932102  0.24931002  0.62351500     0.43300
H690        H  0.46287523  0.27615112  0.72111342     0.43300
C691        C  0.34966065  0.33415708  0.76101988    -0.05800
C692        C  0.35308830  0.35115149  0.73804574    -0.33200
C693        C  0.34858707  0.33344328  0.71676866     0.36000
C694        C  0.34155152  0.29851803  0.71829348    -0.06100
C695        C  0.33925209  0.28199460  0.74130567    -0.33100
C696        C  0.34251314  0.29926819  0.76252903     0.35900
H697        H  0.35754848  0.37770598  0.73661869     0.16300
O698        O  0.35215840  0.35083808  0.69465416    -0.60600
H699        H  0.33429877  0.25527436  0.74286643     0.16300
O700        O  0.33885463  0.28194399  0.78469478    -0.60700
H701        H  0.31324768  0.26687145  0.78748328     0.43300
H702        H  0.32865960  0.34769839  0.69121014     0.43300
C703        C  0.30073502  0.46077706  0.71141645    -0.05800
C704        C  0.32778696  0.48086949  0.72716594    -0.33200
C705        C  0.33461956  0.46540048  0.74762182     0.36000
C706        C  0.31378500  0.42898221  0.75298687    -0.06100
C707        C  0.28709291  0.40868626  0.73678030    -0.33100
C708        C  0.28055415  0.42439052  0.71608712     0.35900
H709        H  0.33659334  0.01626563  0.73020775     0.16300
O710        O  0.36100779  0.48648392  0.76260035    -0.60600
H711        H  0.27097911  0.38058731  0.74021862     0.16300
O712        O  0.25384163  0.40419459  0.70103427    -0.60700
H713        H  0.23283897  0.40373901  0.70773569     0.43300
H714        H  0.37694181  0.99482171  0.75908920     0.43300
C715        C  0.37482882  0.38715529  0.90541950    -0.05800
C716        C  0.34579610  0.35547736  0.91371144    -0.33200
C717        C  0.33818555  0.34804736  0.93853466     0.36000
C718        C  0.35976629  0.37269458  0.95526307    -0.06100
C719        C  0.39202829  0.40099481  0.94727547    -0.33100
C720        C  0.39994650  0.40814228  0.92236332     0.35900
H721        H  0.32689625  0.33840548  0.90094404     0.16300
O722        O  0.30805519  0.31809137  0.94622142    -0.60600
H723        H  0.40916247  0.41978291  0.95997343     0.16300
O724        O  0.42953178  0.43865803  0.91489312    -0.60700
H725        H  0.44707157  0.43159459  0.91139887     0.43300
H726        H  0.28849371  0.32174809  0.94085622     0.43300
C727        C  0.18449909  0.21243525  0.55954461    -0.05800
C728        C  0.19646395  0.20768727  0.58232971    -0.33200
C729        C  0.17297866  0.18917746  0.60150770     0.36000
C730        C  0.13672676  0.17432999  0.59795001    -0.06100
C731        C  0.12458724  0.17829265  0.57500280    -0.33100
C732        C  0.14832512  0.19800648  0.55597780     0.35900
H733        H  0.22428680  0.21930429  0.58549970     0.16300
O734        O  0.18576153  0.18542613  0.62359701    -0.60600
H735        H  0.09673561  0.16658601  0.57197570     0.16300
O736        O  0.13598384  0.20229441  0.53386559    -0.60700
H737        H  0.13208131  0.22241307  0.53535359     0.43300
H738        H  0.18570559  0.16291874  0.62335120     0.43300
C739        C  0.19518105  0.19260920  0.41890596    -0.05800
C740        C  0.21479684  0.19433819  0.39844420    -0.33200
C741        C  0.19845026  0.17511674  0.37832803     0.36000
C742        C  0.16196286  0.15327821  0.37869655    -0.06100
C743        C  0.14210146  0.15338674  0.39848856    -0.33100
C744        C  0.15852334  0.17328331  0.41845582     0.35900
H745        H  0.24315221  0.20944698  0.39854917     0.16300
O746        O  0.21858218  0.17528274  0.35950816    -0.60600
H747        H  0.11383770  0.13707024  0.39882916     0.16300
O748        O  0.13880899  0.17115477  0.43819136    -0.60700
H749        H  0.13127374  0.18862102  0.43435588     0.43300
H750        H  0.22382580  0.19638517  0.34899654     0.43300
C751        C  0.30329641  0.28864821  0.58251537    -0.05800
C752        C  0.30453960  0.25809472  0.58877921    -0.33200
C753        C  0.30968067  0.24993725  0.61262392     0.36000
C754        C  0.31540860  0.27334391  0.63096146    -0.06100
C755        C  0.31339710  0.30373323  0.62486247    -0.33100
C756        C  0.30701943  0.31126796  0.60081290     0.35900
H757        H  0.30024696  0.23958131  0.57518734     0.16300
O758        O  0.30908339  0.21880656  0.61769232    -0.60600
H759        H  0.31768837  0.32211246  0.63854153     0.16300
O760        O  0.30510617  0.34097684  0.59532103    -0.60700
H761        H  0.32959731  0.35974306  0.59179379     0.43300
H762        H  0.28432525  0.20150349  0.62194820     0.43300
C763        C  0.31986871  0.30199611  0.42487498    -0.05800
C764        C  0.32420361  0.28632060  0.40475876    -0.33200
C765        C  0.34369226  0.30655481  0.38434885     0.36000
C766        C  0.36010666  0.34346108  0.38396064    -0.06100
C767        C  0.35634582  0.35913825  0.40448808    -0.33100
C768        C  0.33602266  0.33864515  0.42469530     0.35900
H769        H  0.31170231  0.25800611  0.40463465     0.16300
O770        O  0.34690607  0.28984861  0.36512392    -0.60600
H771        H  0.36861328  0.38738504  0.40479583     0.16300
O772        O  0.33316360  0.35464627  0.44446787    -0.60700
H773        H  0.31490129  0.36081279  0.44025046     0.43300
H774        H  0.32488122  0.28168350  0.35601242     0.43300
C775        C  0.31620027  0.61147790  0.96609917    -0.05800
C776        C  0.31100943  0.12005468  0.99064233    -0.33200
C777        C  0.28583911  0.13046119  0.98899549     0.36000
C778        C  0.26395262  0.12102291  0.96865763    -0.06100
C779        C  0.27483365  0.61984998  0.94138926    -0.33100
C780        C  0.30273641  0.61317440  0.94300366     0.35900
H781        H  0.32292632  0.12071594  0.00804739     0.16300
O782        O  0.27695261  0.14082006  0.00943801    -0.60600
H783        H  0.26087345  0.61537956  0.92446647     0.16300
O784        O  0.31391679  0.60473041  0.92264872    -0.60700
H785        H  0.29328479  0.58342012  0.91689495     0.43300
H786        H  0.28503156  0.16606249  0.00604751     0.43300
C787        C  0.34360674  0.48252799  0.90195539    -0.05800
C788        C  0.31975090  0.49475785  0.90036874    -0.33200
C789        C  0.31553435  0.51193848  0.91961562     0.36000
C790        C  0.33521152  0.51697638  0.94099218    -0.06100
C791        C  0.35733711  0.50272765  0.94311441    -0.33100
C792        C  0.36189272  0.48599085  0.92380254     0.35900
H793        H  0.30509844  0.49191528  0.88391814     0.16300
O794        O  0.29218163  0.52380916  0.91723803    -0.60600
H795        H  0.36036118  0.99101935  0.96313231     0.16300
O796        O  0.38389529  0.47250113  0.92663633    -0.60700
H797        H  0.39749170  0.98415469  0.92627816     0.43300
H798        H  0.27005010  0.50478035  0.92479672     0.43300
C799        C  0.63208294  0.32857028  0.01954705    -0.05800
C800        C  0.13615550  0.31607670  0.99813871    -0.33200
C801        C  0.12461297  0.28068854  0.99513608     0.36000
C802        C  0.10702397  0.25593790  0.01459033    -0.06100
C803        C  0.61198424  0.27073209  0.03849530    -0.33100
C804        C  0.62340465  0.30633780  0.04077458     0.35900
H805        H  0.14588782  0.33411541  0.98225727     0.16300
O806        O  0.12738884  0.27015021  0.97269256    -0.60600
H807        H  0.60062530  0.25278219  0.05428073     0.16300
O808        O  0.62070076  0.31783528  0.06286143    -0.60700
H809        H  0.59539515  0.30507457  0.06726447     0.43300
H810        H  0.11627952  0.27948207  0.96110500     0.43300
C811        C  0.02651291  0.16342975  0.90662468    -0.05800
C812        C  0.03561818  0.19678094  0.91412264    -0.33200
C813        C  0.03614525  0.20278813  0.93888590     0.36000
C814        C  0.02769475  0.17519022  0.95654218    -0.06100
C815        C  0.01436945  0.14111605  0.94905754    -0.33100
C816        C  0.01344394  0.13497637  0.92435391     0.35900
H817        H  0.04439607  0.21875355  0.90089595     0.16300
O818        O  0.04506688  0.23565542  0.94584835    -0.60600
H819        H  0.00717812  0.11953135  0.96240810     0.16300
O820        O  0.00303177  0.10152451  0.91811295    -0.60700
H821        H  0.97763766  0.09083358  0.91496486     0.43300
H822        H  0.06747391  0.25223595  0.93734147     0.43300
C823        C  0.41521512  0.51688149  0.33741968    -0.05800
C824        C  0.41740333  0.50386989  0.36085656    -0.33200
C825        C  0.42387630  0.47593147  0.36385738     0.36000
C826        C  0.42738659  0.46044575  0.34320335    -0.06100
C827        C  0.43309448  0.47869279  0.32045486    -0.33100
C828        C  0.42682856  0.50660450  0.31739822     0.35900
H829        H  0.41067292  0.51281989  0.37673937     0.16300
O830        O  0.42256789  0.46157543  0.38677603    -0.60600
H831        H  0.43830787  0.46892272  0.30435368     0.16300
O832        O  0.42827933  0.52075887  0.29434721    -0.60700
H833        H  0.45261922  0.54041576  0.29206291     0.43300
H834        H  0.44738453  0.47076948  0.39122799     0.43300
C835        C  0.33603638  0.04539925  0.37483335    -0.05800
C836        C  0.35590910  0.06776499  0.39304250    -0.33200
C837        C  0.34178745  0.06352983  0.41648045     0.36000
C838        C  0.30754344  0.03608600  0.42203757    -0.06100
C839        C  0.28773809  0.01399961  0.40361002    -0.33100
C840        C  0.30152674  0.01875056  0.38018286     0.35900
H841        H  0.38261351  0.08823079  0.38909462     0.16300
O842        O  0.36168968  0.08602597  0.43378840    -0.60600
H843        H  0.26667445  0.48334135  0.40755604     0.16300
O844        O  0.28857578  0.48636432  0.36374034    -0.60700
H845        H  0.26952408  0.48874234  0.35577015     0.43300
H846        H  0.37599948  0.07619024  0.44078740     0.43300
C847        C  0.06251166  0.04412072  0.35589891    -0.05800
C848        C  0.04876630  0.04597226  0.37829049    -0.33200
C849        C  0.02024711  0.05163566  0.37829513     0.36000
C850        C  0.00508386  0.05318927  0.35588461    -0.06100
C851        C  0.01191075  0.03888880  0.33586578    -0.33100
C852        C  0.03904440  0.03136172  0.33667380     0.35900
H853        H  0.06439234  0.05134868  0.39448660     0.16300
O854        O  0.01158603  0.06109163  0.39925022    -0.60600
H855        H  0.99965518  0.03777782  0.31861710     0.16300
O856        O  0.04801104  0.02150629  0.31603280    -0.60700
H857        H  0.03787938  0.99578097  0.31849130     0.43300
H858        H  0.98925129  0.04030779  0.40497046     0.43300
C859        C  0.47992088  0.14517365  0.38474745    -0.05800
C860        C  0.99759052  0.17588400  0.38359497    -0.33200
C861        C  0.00141634  0.19573243  0.40357581     0.36000
C862        C  0.48537699  0.18415433  0.42556139    -0.06100
C863        C  0.46261677  0.14768073  0.42620838    -0.33100
C864        C  0.46063464  0.12812851  0.40632129     0.35900
H865        H  0.01118380  0.18919279  0.36669344     0.16300
O866        O  0.02088450  0.23160081  0.40083110    -0.60600
H867        H  0.44658828  0.13425412  0.44226620     0.16300
O868        O  0.43906921  0.09241983  0.40788654    -0.60700
H869        H  0.45237253  0.08305886  0.41709113     0.43300
H870        H  0.04526955  0.23744725  0.40431772     0.43300
C871        C  0.33454601  0.02110803  0.08414243    -0.05800
C872        C  0.34457909  0.00387116  0.06799215    -0.33200
C873        C  0.36117488  0.52857812  0.03604214     0.36000
C874        C  0.32198770  0.02353407  0.03388188    -0.06100
C875        C  0.30808237  0.03676556  0.05047210    -0.33100
C876        C  0.31407033  0.03552606  0.07534803     0.35900
H877        H  0.36009515  0.99228020  0.07431033     0.16300
O878        O  0.37993684  0.52181664  0.01969015    -0.60600
H879        H  0.29405704  0.04991411  0.04401126     0.16300
O880        O  0.30208912  0.05095882  0.09058887    -0.60700
H881        H  0.28216306  0.03121640  0.09975751     0.43300
H882        H  0.40194045  0.54444779  0.01658421     0.43300
C883        C  0.00287403  0.15051621  0.04526476    -0.05800
C884        C  0.00517337  0.16865732  0.06610615    -0.33200
C885        C  0.48588839  0.14953536  0.08658799     0.36000
C886        C  0.46345611  0.11302840  0.08679947    -0.06100
C887        C  0.46314397  0.09515100  0.06630282    -0.33100
C888        C  0.48455945  0.11314043  0.04588749     0.35900
H889        H  0.02368994  0.19646888  0.06660474     0.16300
O890        O  0.48683853  0.16807078  0.10602341    -0.60600
H891        H  0.44579234  0.06707257  0.06592523     0.16300
O892        O  0.48359987  0.09466014  0.02641529    -0.60700
H893        H  0.46337134  0.09203698  0.01677477     0.43300
H894        H  0.00261789  0.16638031  0.11740786     0.43300
C895        C  0.33935005  0.03506542  0.28557824    -0.05800
C896        C  0.33397123  0.06182623  0.27555773    -0.33200
C897        C  0.33598092  0.06868400  0.25028087     0.36000
C898        C  0.34425364  0.04897092  0.23490157    -0.06100
C899        C  0.34366099  0.01874084  0.24485284    -0.33100
C900        C  0.34077712  0.01144799  0.26994849     0.35900
H901        H  0.33226979  0.07988402  0.28725850     0.16300
O902        O  0.33502264  0.09782531  0.24130945    -0.60600
H903        H  0.34902755  0.00267895  0.23343633     0.16300
O904        O  0.34252382  0.48535655  0.27692635    -0.60700
H905        H  0.31806738  0.46845428  0.28217816     0.43300
H906        H  0.30994584  0.08952612  0.23826279     0.43300
C907        C  0.47683181  0.12483231  0.29609449    -0.05800
C908        C  0.49315732  0.11588823  0.27819640    -0.33200
C909        C  0.48600698  0.11755151  0.25345632     0.36000
C910        C  0.46208785  0.12845686  0.24590987    -0.06100
C911        C  0.44790410  0.13998034  0.26370092    -0.33100
C912        C  0.45486035  0.13800399  0.28847966     0.35900
H913        H  0.51069076  0.10619833  0.28344952     0.16300
O914        O  0.50111851  0.10653683  0.23709489    -0.60600
H915        H  0.42953342  0.14867472  0.25865872     0.16300
O916        O  0.43831050  0.14704708  0.30510397    -0.60700
H917        H  0.41613957  0.12508770  0.30941831     0.43300
H918        H  0.52284068  0.12802924  0.23134727     0.43300
O919        O  0.37179843  0.64189346  0.16360087    -0.81200
O920        O  0.44358055  0.54831755  0.19051920    -0.65900
O921        O  0.42105043  0.61867194  0.16644018    -1.12500
C922        C  0.36376915  0.53975209  0.10342917     1.05700
O923        O  0.45448091  0.53893566  0.15337213    -0.79100
O924        O  0.44554679  0.57016505  0.11348131    -0.66700
Ni925      Ni  0.40074784  0.63655568  0.18787824     1.34900
C926        C  0.44992190  0.60046980  0.10836156     0.84400
O927        O  0.46046486  0.61217898  0.20473316    -0.79700
O928        O  0.42774876  0.63509825  0.21526173    -0.89900
C929        C  0.45820599  0.53752415  0.17615723     0.84000
O930        O  0.36327813  0.59111736  0.19709696    -0.68100
O931        O  0.37771342  0.52200933  0.11163813    -0.87400
C932        C  0.36782327  0.56822324  0.20883543     0.84800
C933        C  0.45111873  0.62680916  0.22002019     1.06400
H934        H  0.37883891  0.53834828  0.16223858     0.38200
O935        O  0.40064996  0.55605241  0.15464827    -1.10100
O936        O  0.43300821  0.61267785  0.11889789    -0.66700
Ni937      Ni  0.39244888  0.59191306  0.14041662     1.26300
O938        O  0.39262359  0.56242049  0.20350231    -0.67000
O939        O  0.36503174  0.56508003  0.11428544    -0.79200
C940        C  0.37000400  0.64196497  0.14061183     0.84200
O941        O  0.38303416  0.62796131  0.12793613    -0.66400
Ni942      Ni  0.41478109  0.53151378  0.13415550     1.27400
Ni943      Ni  0.43119043  0.58344708  0.17969649     1.26100
H944        H  0.44252226  0.63831625  0.15983198     0.38700
C945        C  0.47582713  0.62435033  0.36402197     0.79900
N946        N  0.98902125  0.60339698  0.37186725    -0.78400
C947        C  0.99338961  0.58626024  0.35384536     0.82300
N948        N  0.98902288  0.59461490  0.33063608    -0.78400
C949        C  0.47862804  0.61727282  0.32206528     0.82400
N950        N  0.47375890  0.63415036  0.34037377    -0.80100
C951        C  0.35257930  0.54663188  0.34987791     0.79900
N952        N  0.33919636  0.54611908  0.32730614    -0.78400
C953        C  0.35386438  0.54007613  0.30787751     0.82300
N954        N  0.38074822  0.53394536  0.31137525    -0.78400
C955        C  0.39420002  0.03206823  0.33540398     0.82400
N956        N  0.38060485  0.03873042  0.35490738    -0.80100
C957        C  0.04775055  0.68511118  0.98303365     0.79900
N958        N  0.02955789  0.66379019  0.00269990    -0.78400
C959        C  0.04017165  0.67440567  0.02560986     0.82300
N960        N  0.06897032  0.70616034  0.02850314    -0.78400
C961        C  0.08754671  0.72729988  0.00909595     0.82400
N962        N  0.07649581  0.71657407  0.98652082    -0.80100
C963        C  0.32235214  0.03314274  0.00759575     0.79900
N964        N  0.32230514  0.06326257  0.00113646    -0.78400
C965        C  0.32224065  0.07350963  0.97753229     0.82300
N966        N  0.32139366  0.05261089  0.96014757    -0.78400
C967        C  0.32160855  0.02243569  0.96607600     0.82400
N968        N  0.32247815  0.01278608  0.98990950    -0.80100
O969        O  0.22809835  0.82210716  0.49856012    -0.81200
O970        O  0.28721518  0.71730271  0.52597844    -0.65900
O971        O  0.26874266  0.79014333  0.50138181    -1.12500
C972        C  0.22207228  0.71544192  0.43720198     1.05700
O973        O  0.31443605  0.72452322  0.49124555    -0.79100
O974        O  0.31198299  0.76718167  0.45587647    -0.66700
Ni975      Ni  0.25105120  0.80995040  0.52362460     1.34900
C976        C  0.30274479  0.78774345  0.44589173     0.84400
O977        O  0.30445157  0.78019494  0.54138108    -0.79700
O978        O  0.27154264  0.80204044  0.55260447    -0.89900
C979        C  0.30614533  0.71058519  0.51259402     0.84000
O980        O  0.21048164  0.76555716  0.53005142    -0.68100
O981        O  0.24981062  0.71360539  0.44069004    -0.87400
C982        C  0.21022168  0.73789999  0.53844452     0.84800
C983        C  0.29310281  0.79163258  0.55736310     1.06400
H984        H  0.23362226  0.70748442  0.49346290     0.38200
O985        O  0.25369318  0.72952574  0.48796644    -1.10100
O986        O  0.27436353  0.78673838  0.45169930    -0.66700
Ni987      Ni  0.23811163  0.76063573  0.47632052     1.26300
O988        O  0.23514155  0.73148087  0.53464832    -0.67000
O989        O  0.21085145  0.72956496  0.45168564    -0.79200
C990        C  0.21526615  0.81249426  0.47783425     0.84200
O991        O  0.21866480  0.79007901  0.46632790    -0.66400
Ni992      Ni  0.28114499  0.71989573  0.46681483     1.27400
Ni993      Ni  0.27827544  0.75446119  0.51484978     1.26100
H994        H  0.29006136  0.80905129  0.49400287     0.38700
O995        O  0.25363454  0.86449195  0.81981727    -0.81200
O996        O  0.41034434  0.95003221  0.79636110    -0.65900
O997        O  0.32290087  0.88069226  0.82552078    -1.12500
C998        C  0.34037860  0.96057611  0.88262140     1.05700
O999        O  0.43522895  0.97067663  0.83178885    -0.79100
O1000       O  0.39427490  0.92247697  0.86720285    -0.66700
Ni1001     Ni  0.28450850  0.85078371  0.80654501     1.34900
C1002       C  0.36658809  0.90017482  0.87866468     0.84400
O1003       O  0.36539492  0.88328039  0.78668505    -0.79700
O1004       O  0.31244269  0.83481134  0.79205734    -0.89900
C1005       C  0.43705425  0.96815289  0.80910615     0.84000
O1006       O  0.29283150  0.88273829  0.77921718    -0.68100
O1007       O  0.37171628  0.96701321  0.88007128    -0.87400
C1008       C  0.31586880  0.91456694  0.77438285     0.84800
C1009       C  0.34231713  0.85219097  0.78160982     1.06400
H1010       H  0.36147885  0.96388623  0.82382960     0.38200
O1011       O  0.36345238  0.94531864  0.83252217    -1.10100
O1012       O  0.33633227  0.89502578  0.87274103    -0.66700
Ni1013     Ni  0.31850587  0.91171970  0.84613339     1.26300
O1014       O  0.34366628  0.93063962  0.78652122    -0.67000
O1015       O  0.31684797  0.94419647  0.86713533    -0.79200
C1016       C  0.24710571  0.86373374  0.84220403     0.84200
O1017       O  0.27174887  0.87730352  0.85733508    -0.66400
Ni1018     Ni  0.40084899  0.96645383  0.85460481     1.27400
Ni1019     Ni  0.36570405  0.91465458  0.80993776     1.26100
H1020       H  0.32813878  0.86518840  0.83544707     0.38700
C1021       C  0.33502506  0.77915169  0.69749747     0.79900
N1022       N  0.32317580  0.78549871  0.67587456    -0.78400
C1023       C  0.32257446  0.76767897  0.65625255     0.82300
N1024       N  0.33551720  0.74551077  0.65827314    -0.78400
C1025       C  0.34800977  0.73971807  0.67942519     0.82400
N1026       N  0.34744464  0.75660316  0.69891257    -0.80100
C1027       C  0.29357189  0.49561032  0.65017745     0.79900
N1028       N  0.28974934  0.98300501  0.67250099    -0.78400
C1029       C  0.28830786  0.98919287  0.69622256     0.82300
N1030       N  0.29223954  0.50870434  0.69746236    -0.78400
C1031       C  0.29188777  0.53130647  0.68007596     0.82400
N1032       N  0.29248005  0.52433092  0.65653093    -0.80100
C1033       C  0.34653803  0.88127546  0.01863355     0.79900
N1034       N  0.31270743  0.87393217  0.01953836    -0.78400
C1035       C  0.29406543  0.86920198  0.99899901     0.82300
N1036       N  0.30960049  0.87123607  0.97754804    -0.78400
C1037       C  0.34276467  0.87735606  0.97618664     0.82400
N1038       N  0.36154861  0.88261555  0.99680337    -0.80100
O1039       O  0.09654632  0.78325877  0.50244930    -0.81200
O1040       O  0.43025619  0.71125808  0.52622577    -0.65900
O1041       O  0.02373082  0.73947166  0.50403689    -1.12500
C1042       C  0.99827011  0.78987571  0.43539063     1.05700
O1043       O  0.41025970  0.68937997  0.49092430    -0.79100
O1044       O  0.45048971  0.69585370  0.45315560    -0.66700
Ni1045     Ni  0.06125946  0.75606233  0.52692441     1.34900
C1046       C  0.48017697  0.70090314  0.44670349     0.84400
O1047       O  0.47753790  0.69493025  0.54388368    -0.79700
O1048       O  0.03228962  0.73079036  0.55523249    -0.89900
C1049       C  0.40468565  0.69354277  0.51258544     0.84000
O1050       O  0.05641471  0.79533039  0.53356316    -0.68100
O1051       O  0.46194912  0.76047840  0.44069494    -0.87400
C1052       C  0.02905364  0.79257140  0.54326983     0.84800
C1053       C  0.50091598  0.70499155  0.55998560     1.06400
H1054       H  0.47724884  0.77064866  0.49309144     0.38200
O1055       O  0.47691326  0.74977697  0.48811942    -1.10100
O1056       O  0.01283069  0.73528663  0.45413924    -0.66700
Ni1057     Ni  0.02487724  0.77112344  0.47745791     1.26300
O1058       O  0.49405720  0.76261150  0.53714027    -0.67000
O1059       O  0.02241098  0.80021832  0.45118878    -0.79200
C1060       C  0.09906619  0.79428727  0.48039274     0.84200
O1061       O  0.07277571  0.78863723  0.46761051    -0.66400
Ni1062     Ni  0.43796910  0.72654828  0.46711307     1.27400
Ni1063     Ni  0.47697018  0.72283417  0.51635207     1.26100
H1064       H  0.02146011  0.71851908  0.49754136     0.38700
O1065       O  0.36153119  0.74410034  0.16375060    -0.81200
O1066       O  0.44951847  0.90428061  0.19041709    -0.65900
O1067       O  0.38412707  0.81519360  0.16628846    -1.12500
C1068       C  0.47902308  0.84697067  0.10986782     1.05700
O1069       O  0.45935137  0.92705463  0.15273928    -0.79100
O1070       O  0.44427423  0.89369773  0.11082677    -0.66700
Ni1071     Ni  0.36451115  0.77488026  0.18834816     1.34900
C1072       C  0.41344382  0.86956953  0.10656559     0.84400
O1073       O  0.38363698  0.85592493  0.20306618    -0.77300
O1074       O  0.36322299  0.80009103  0.21563052    -0.89900
C1075       C  0.46121204  0.93077062  0.17545457     0.84000
O1076       O  0.40922848  0.78188080  0.19831875    -0.68100
O1077       O  0.49443129  0.87669591  0.11930517    -0.87400
C1078       C  0.43148325  0.80893330  0.20888289     0.84800
C1079       C  0.36974135  0.83106279  0.21937481     1.06400
H1080       H  0.46444931  0.85376449  0.16445562     0.38200
O1081       O  0.44812003  0.85907560  0.15611357    -1.10100
O1082       O  0.39783060  0.84078330  0.11935522    -0.66700
Ni1083     Ni  0.41547550  0.81774838  0.14112199     1.26300
O1084       O  0.43482741  0.83917075  0.20420781    -0.67000
O1085       O  0.44807425  0.82244875  0.11594086    -0.79200
C1086       C  0.36471734  0.74566526  0.14071298     0.84200
O1087       O  0.38163235  0.77437741  0.12807127    -0.66400
Ni1088     Ni  0.47603868  0.90056222  0.13658819     1.27400
Ni1089     Ni  0.41648662  0.85872694  0.17957528     1.26100
H1090       H  0.36509380  0.81730163  0.15914732     0.38700
C1091       C  0.38790436  0.87315192  0.31764624     0.79900
N1092       N  0.37420907  0.85207898  0.33817795    -0.78400
C1093       C  0.38287003  0.86598017  0.36035446     0.82300
N1094       N  0.40392032  0.90105311  0.36184532    -0.78400
C1095       C  0.41726787  0.92241600  0.34150089     0.82400
N1096       N  0.40911869  0.90804987  0.31958609    -0.80100
C1097       C  0.04090988  0.82110550  0.33447708     0.79900
N1098       N  0.07469714  0.83051113  0.32960459    -0.78400
C1099       C  0.08687955  0.83493858  0.30645698     0.82300
N1100       N  0.06475600  0.83025665  0.28795468    -0.78400
C1101       C  0.03076385  0.82037760  0.29229230     0.82400
N1102       N  0.50175360  0.79618018  0.31353917    -0.80100
O1103       O  0.27855893  0.59501297  0.48545956    -0.81200
O1104       O  0.21313873  0.93799307  0.46362840    -0.65900
O1105       O  0.23360996  0.52282478  0.48388888    -1.12500
C1106       C  0.28180521  0.48538606  0.54782510     1.05700
O1107       O  0.19260296  0.91232806  0.49978565    -0.79100
O1108       O  0.19654514  0.95314954  0.53532147    -0.66700
Ni1109     Ni  0.25219482  0.56291333  0.46111705     1.34900
C1110       C  0.20163691  0.47748255  0.54064741     0.84400
O1111       O  0.19722005  0.98752925  0.44921730    -0.79700
O1112       O  0.22788812  0.53758877  0.43313335    -0.89900
C1113       C  0.19713404  0.91037984  0.47744339     0.84000
O1114       O  0.29050868  0.55676854  0.45278526    -0.68100
O1115       O  0.25981774  0.96199815  0.54827530    -0.87400
C1116       C  0.28590601  0.52976527  0.44234250     0.84800
C1117       C  0.20807762  0.01289665  0.43328089     1.06400
H1118       H  0.27223185  0.97897881  0.49382880     0.38200
O1119       O  0.25242476  0.97968048  0.50048989    -1.10100
O1120       O  0.22832229  0.50592894  0.53288453    -0.66700
Ni1121     Ni  0.26440950  0.51968539  0.50847499     1.26300
O1122       O  0.26413690  0.00233607  0.45192887    -0.67000
O1123       O  0.29183706  0.51255666  0.53328059    -0.79200
C1124       C  0.28903609  0.59473305  0.50697221     0.84200
O1125       O  0.28334474  0.56679454  0.51895160    -0.66400
Ni1126     Ni  0.22773413  0.93959653  0.52266113     1.27400
Ni1127     Ni  0.22510425  0.98344856  0.47475669     1.26100
H1128       H  0.21310269  0.52079708  0.49158226     0.38700
O1129       O  0.05556748  0.58111468  0.83031445    -0.81200
O1130       O  0.11954937  0.73799174  0.84917891    -0.65900
O1131       O  0.05514145  0.64492305  0.83075872    -1.12500
C1132       C  0.11215276  0.67494718  0.75604261     1.05700
O1133       O  0.12885771  0.76473276  0.81209625    -0.79100
O1134       O  0.07286650  0.71861019  0.78602895    -0.66700
Ni1135     Ni  0.04138668  0.60481198  0.85243317     1.34900
C1136       C  0.04937685  0.68938959  0.77863825     0.84400
O1137       O  0.06081415  0.68370852  0.87039286    -0.79700
O1138       O  0.02582916  0.62496189  0.87594597    -0.89900
C1139       C  0.13198062  0.76562315  0.83504750     0.84000
O1140       O  0.08297842  0.62042717  0.87114756    -0.68100
O1141       O  0.11637400  0.70506894  0.75978979    -0.87400
C1142       C  0.10904513  0.65074832  0.87397046     0.84800
C1143       C  0.03849441  0.65614732  0.88293956     1.06400
H1144       H  0.13420057  0.69569682  0.81514628     0.38200
O1145       O  0.11213821  0.69433562  0.81127716    -1.10100
O1146       O  0.05028254  0.66105002  0.78291771    -0.66700
Ni1147     Ni  0.07982889  0.64790285  0.80192037     1.26300
O1148       O  0.11621403  0.67706974  0.85939426    -0.67000
O1149       O  0.10543803  0.65200256  0.77321557    -0.79200
C1150       C  0.04478844  0.57551179  0.80858070     0.84200
O1151       O  0.04744029  0.60050169  0.79456943    -0.66400
Ni1152     Ni  0.12099678  0.73178465  0.78779345     1.27400
Ni1153     Ni  0.08701116  0.69048362  0.84082607     1.26100
H1154       H  0.03380576  0.64478850  0.82633402     0.38700
C1155       C  0.09348938  0.64000265  0.65501778     0.79900
N1156       N  0.06864610  0.60681606  0.65035721    -0.78400
C1157       C  0.06335659  0.59526761  0.62757057     0.82300
N1158       N  0.08361905  0.61766191  0.60912658    -0.78400
C1159       C  0.10830907  0.65115875  0.61314292     0.82400
N1160       N  0.11345670  0.66217205  0.63622338    -0.80100
C1161       C  0.45518279  0.67377888  0.66060843     0.79900
N1162       N  0.42016292  0.65848971  0.66377068    -0.78400
C1163       C  0.40502190  0.65255519  0.68595226     0.82300
N1164       N  0.42562268  0.66111413  0.70580840    -0.78400
C1165       C  0.46109260  0.67686465  0.70318463     0.82400
N1166       N  0.97039344  0.68618374  0.67921699    -0.80100
O1167       O  0.07647713  0.55139945  0.14928795    -0.81200
O1168       O  0.23380476  0.62822959  0.12293977    -0.65900
O1169       O  0.14338327  0.55831135  0.14858873    -1.12500
C1170       C  0.17162909  0.62608919  0.21619305     1.05700
O1171       O  0.25815306  0.63049214  0.15888999    -0.79100
O1172       O  0.21663117  0.58415899  0.19353521    -0.66700
Ni1173     Ni  0.10292520  0.53810042  0.12889996     1.34900
C1174       C  0.18774269  0.56077765  0.20293580     0.84400
O1175       O  0.18280423  0.56651346  0.10655525    -0.79700
O1176       O  0.12611995  0.52362873  0.10687108    -0.89900
C1177       C  0.26068734  0.63750729  0.13614982     0.84000
O1178       O  0.11410033  0.57698894  0.10655041    -0.68100
O1179       O  0.20255076  0.63269374  0.21109275    -0.87400
C1180       C  0.14115365  0.60679786  0.10233937     0.84800
C1181       C  0.15672518  0.54051652  0.09708181     1.06400
H1182       H  0.18932102  0.63927733  0.15712238     0.38200
O1183       O  0.18942378  0.61804628  0.16237355    -1.10100
O1184       O  0.15872305  0.55908264  0.19757254    -0.66700
Ni1185     Ni  0.14390285  0.58467227  0.17517941     1.26300
O1186       O  0.16895964  0.61787113  0.11487563    -0.67000
O1187       O  0.14658811  0.61252657  0.20129776    -0.79200
C1188       C  0.07129691  0.54340058  0.17194891     0.84200
O1189       O  0.09695313  0.55085219  0.18582833    -0.66400
Ni1190     Ni  0.22798889  0.63066836  0.18356327     1.27400
Ni1191     Ni  0.18734671  0.59284595  0.13448181     1.26100
H1192       H  0.14625570  0.53906220  0.15499068     0.38700
C1193       C  0.13942957  0.61390704  0.31806611     0.79900
N1194       N  0.11021343  0.58386195  0.32591223    -0.78400
C1195       C  0.10123948  0.57667251  0.34988810     0.82300
N1196       N  0.12186131  0.60031700  0.36586698    -0.78400
C1197       C  0.15076768  0.63058314  0.35845686     0.82400
N1198       N  0.15971318  0.63742316  0.33446362    -0.80100
C1199       C  0.20307577  0.98683494  0.33225376     0.79900
N1200       N  0.19687055  0.49055700  0.30953128    -0.78400
C1201       C  0.19631390  0.48060659  0.28649831     0.82300
N1202       N  0.20854559  0.97142117  0.28603257    -0.78400
C1203       C  0.20555985  0.94874120  0.30477033     0.82400
N1204       N  0.20322225  0.95706009  0.32767318    -0.80100
C1205       C  0.15633238  0.69525586  0.96940195     0.79900
N1206       N  0.17132916  0.73047553  0.97134802    -0.78400
C1207       C  0.17686572  0.74454328  0.99331572     0.82300
N1208       N  0.16748976  0.72293740  0.01358301    -0.78400
C1209       C  0.15256821  0.68773750  0.01247619     0.82400
N1210       N  0.14688804  0.67380480  0.99017308    -0.80100
O1211       O  0.15201890  0.89153477  0.81536079    -0.81200
O1212       O  0.06255062  0.96151667  0.79460322    -0.65900
O1213       O  0.13396209  0.94394068  0.81952037    -1.12500
C1214       C  0.05831308  0.88046978  0.88390280     1.05700
O1215       O  0.04293564  0.96443769  0.83102583    -0.79100
O1216       O  0.09179913  0.97139977  0.86377667    -0.66700
Ni1217     Ni  0.16277514  0.93559597  0.79853463     1.34900
C1218       C  0.11580965  0.96755788  0.87381587     0.84400
O1219       O  0.12808970  0.98446545  0.78076440    -0.79700
O1220       O  0.17553710  0.97818256  0.77914963    -0.89900
C1221       C  0.04553593  0.97041875  0.80816656     0.84000
O1222       O  0.12944333  0.91082361  0.77455207    -0.68100
O1223       O  0.04935698  0.90369238  0.88061223    -0.87400
C1224       C  0.09886143  0.90515897  0.76992664     0.84800
C1225       C  0.15603819  0.98968434  0.77025677     1.06400
H1226       H  0.05127670  0.89793726  0.82424477     0.38200
O1227       O  0.06956183  0.91861734  0.83137193    -1.10100
O1228       O  0.12191915  0.94315223  0.86850666    -0.66700
Ni1229     Ni  0.10455433  0.90855378  0.84357296     1.26300
O1230       O  0.08251717  0.91567831  0.78302344    -0.67000
O1231       O  0.07385890  0.87396509  0.86743893    -0.79200
C1232       C  0.15066486  0.88374906  0.83803286     0.84200
O1233       O  0.13958838  0.89679902  0.85319862    -0.66400
Ni1234     Ni  0.04822793  0.93353258  0.85422247     1.27400
Ni1235     Ni  0.09862270  0.95220227  0.80609201     1.26100
H1236       H  0.14987937  0.96473249  0.82772047     0.38700
C1237       C  0.02873803  0.82127297  0.64061717     0.79900
N1238       N  0.48871345  0.77684816  0.64803563    -0.78400
C1239       C  0.47763241  0.76693077  0.67133871     0.82300
N1240       N  0.00769945  0.80089865  0.68750912    -0.78400
C1241       C  0.03758193  0.83169510  0.68247871     0.82400
N1242       N  0.04848936  0.84228279  0.65869616    -0.80100
C1243       C  0.13088410  0.98153988  0.62965365     0.79900
N1244       N  0.09733409  0.48234862  0.61980522    -0.78400
C1245       C  0.08057476  0.48860652  0.63757787     0.82300
N1246       N  0.09430893  0.49434434  0.66017828    -0.78400
C1247       C  0.12818763  0.99415561  0.67041420     0.82400
N1248       N  0.14452717  0.98753417  0.65235711    -0.80100
C1249       C  0.56956293  0.84921684  0.98531466     0.79900
N1250       N  0.54946090  0.84913967  0.00396960    -0.78400
C1251       C  0.55905354  0.84763381  0.02749218     0.82300
N1252       N  0.58831671  0.84548999  0.03201407    -0.78400
C1253       C  0.60845732  0.84548340  0.01369641     0.82400
N1254       N  0.59880264  0.84761764  0.99056503    -0.80100
C1255       C  0.18099881  0.55376032  0.99519411     0.79900
N1256       N  0.21091910  0.58451848  0.99029012    -0.78400
C1257       C  0.22208299  0.59704795  0.96720227     0.82300
N1258       N  0.20248720  0.57808486  0.94869047    -0.78400
C1259       C  0.17249651  0.54705827  0.95304814     0.82400
N1260       N  0.16185556  0.53453734  0.97645512    -0.80100
C1261       C  0.48000925  0.52217111  0.18473511     0.79900
N1262       N  0.45691011  0.98211906  0.18364560    -0.78400
C1263       C  0.47689241  0.96659536  0.18345377     0.82300
N1264       N  0.01775764  0.99187096  0.18305681    -0.78400
C1265       C  0.03490538  0.52334447  0.18134887     0.82400
N1266       N  0.01425388  0.53827095  0.18095160    -0.80100
C1267       C  0.31887469  0.68648447  0.52048252     0.79900
N1268       N  0.35408447  0.69949825  0.52119472    -0.78400
C1269       C  0.36783015  0.67795801  0.52051457     0.82300
N1270       N  0.34588116  0.64306423  0.51789456    -0.78400
C1271       C  0.31057235  0.62942630  0.51715341     0.82400
N1272       N  0.29744519  0.65157114  0.51768647    -0.80100
C1273       C  0.19262816  0.82630848  0.46879500     0.79900
N1274       N  0.15735520  0.80428826  0.47041567    -0.78400
C1275       C  0.13491266  0.81706929  0.47056428     0.82300
N1276       N  0.14825945  0.85237895  0.47032981    -0.78400
C1277       C  0.18339543  0.87491906  0.46871421     0.82400
N1278       N  0.20532914  0.86154106  0.46868495    -0.80100
C1279       C  0.02805961  0.98923228  0.79844795     0.79900
N1280       N  0.48993571  0.96831822  0.79819779    -0.78400
C1281       C  0.47269544  0.98658223  0.79883827     0.82300
N1282       N  0.49363332  0.52090094  0.80028081    -0.78400
C1283       C  0.02793931  0.53952165  0.80020537     0.82400
N1284       N  0.04660411  0.52268437  0.79871189    -0.80100
C1285       C  0.16210514  0.85863758  0.84594310     0.79900
N1286       N  0.19698551  0.87108104  0.84830289    -0.78400
C1287       C  0.21016631  0.84903929  0.84915212     0.82300
N1288       N  0.18805723  0.81416509  0.84670680    -0.78400
C1289       C  0.15296149  0.80096127  0.84453595     0.82400
N1290       N  0.14036372  0.82367253  0.84316812    -0.80100
C1291       C  0.35180335  0.65945785  0.12947739     0.79900
N1292       N  0.31623315  0.64081788  0.12814602    -0.78400
C1293       C  0.29693021  0.65724174  0.12655042     0.82300
N1294       N  0.31376774  0.69270646  0.12795710    -0.78400
C1295       C  0.34924677  0.71179822  0.12945482     0.82400
N1296       N  0.36780233  0.69479295  0.13072837    -0.80100
C1297       C  0.14327556  0.00196792  0.69518262    -0.05800
C1298       C  0.16797332  0.99231993  0.70292472    -0.33200
C1299       C  0.17761521  0.99385312  0.72743023     0.36000
C1300       C  0.16187429  0.00447262  0.74471257    -0.06100
C1301       C  0.14149910  0.01905406  0.73618716    -0.33100
C1302       C  0.13224290  0.01796570  0.71180849     0.35900
H1303       H  0.17834993  0.98163070  0.69033207     0.16300
O1304       O  0.20077153  0.98294367  0.73447184    -0.60600
H1305       H  0.12217890  0.51818326  0.74606833     0.16300
O1306       O  0.10344231  0.52469497  0.70245212    -0.60700
H1307       H  0.11851568  0.55039907  0.69939747     0.43300
H1308       H  0.18742920  0.95700336  0.73452898     0.43300
C1309       C  0.08291004  0.88708628  0.74733529    -0.05800
C1310       C  0.10470538  0.89135950  0.72731941    -0.33200
C1311       C  0.09069228  0.87536141  0.70541766     0.36000
C1312       C  0.05431777  0.85387958  0.70342412    -0.06100
C1313       C  0.03265354  0.85043057  0.72327715    -0.33100
C1314       C  0.04654347  0.86682527  0.74490198     0.35900
H1315       H  0.13282379  0.90725004  0.72859053     0.16300
O1316       O  0.11280631  0.87940474  0.68669224    -0.60600
H1317       H  0.00448356  0.83445702  0.72220469     0.16300
O1318       O  0.02433701  0.86132341  0.76394827    -0.60700
H1319       H  0.01609729  0.87835399  0.76069732     0.43300
H1320       H  0.12034723  0.90303419  0.67899329     0.43300
C1321       C  0.13398349  0.98946386  0.89445155    -0.05800
C1322       C  0.13767033  0.97314355  0.91601187    -0.33200
C1323       C  0.14963074  0.99150130  0.93722304     0.36000
C1324       C  0.15570187  0.52523290  0.93219884    -0.06100
C1325       C  0.15015901  0.54064219  0.91088028    -0.33100
C1326       C  0.14294494  0.02497558  0.89433186     0.35900
H1327       H  0.13025708  0.94566864  0.91663387     0.16300
O1328       O  0.15341340  0.97472565  0.95774201    -0.60600
H1329       H  0.15542187  0.56745526  0.91052676     0.16300
O1330       O  0.13231082  0.53756419  0.86948451    -0.60700
H1331       H  0.10956733  0.53633717  0.87242768     0.43300
H1332       H  0.17804751  0.97995830  0.95715548     0.43300
C1333       C  0.05479187  0.86489464  0.90899112    -0.05800
C1334       C  0.03630962  0.87162905  0.92661481    -0.33200
C1335       C  0.04158339  0.86808386  0.95147152     0.36000
C1336       C  0.06571003  0.85762801  0.95914062    -0.06100
C1337       C  0.08082146  0.84685173  0.94160199    -0.33100
C1338       C  0.07575502  0.85055894  0.91681309     0.35900
H1339       H  0.01949061  0.88208703  0.92114659     0.16300
O1340       O  0.02499834  0.87743753  0.96783941    -0.60600
H1341       H  0.59725281  0.83414805  0.94737938     0.16300
O1342       O  0.09332408  0.84222866  0.90048948    -0.60700
H1343       H  0.11779116  0.86203043  0.90013538     0.43300
H1344       H  0.00179829  0.85616401  0.97093581     0.43300
C1345       C  0.16101409  0.53279847  0.07188238    -0.05800
C1346       C  0.13274187  0.52261657  0.05589204    -0.33200
C1347       C  0.13823448  0.52678656  0.03060511     0.36000
C1348       C  0.17228954  0.54086497  0.02097353    -0.06100
C1349       C  0.19980999  0.54737283  0.03691914    -0.33100
C1350       C  0.19437346  0.54323572  0.06211127     0.35900
H1351       H  0.10680247  0.51459062  0.06288622     0.16300
O1352       O  0.11072026  0.51989413  0.01563786    -0.60600
H1353       H  0.22615065  0.55752522  0.02982358     0.16300
O1354       O  0.22240018  0.55194920  0.07695986    -0.60700
H1355       H  0.22070403  0.52930365  0.08235807     0.43300
H1356       H  0.10901444  0.54152149  0.01486043     0.43300
C1357       C  0.14635604  0.66625161  0.03581679    -0.05800
C1358       C  0.16203965  0.68346022  0.05721156    -0.33200
C1359       C  0.15949921  0.66469783  0.07918827     0.36000
C1360       C  0.14077281  0.62790372  0.08043204    -0.06100
C1361       C  0.12356129  0.61057874  0.05947802    -0.33100
C1362       C  0.12640467  0.62933486  0.03734516     0.35900
H1363       H  0.17730572  0.71180333  0.05692274     0.16300
O1364       O  0.17583238  0.68267614  0.09925720    -0.60600
H1365       H  0.10891995  0.58217705  0.05995919     0.16300
O1366       O  0.10943542  0.61123143  0.01746452    -0.60700
H1367       H  0.12600050  0.60542221  0.00981595     0.43300
H1368       H  0.15747372  0.68434789  0.10831010     0.43300
C1369       C  0.18851497  0.53761747  0.22311115    -0.05800
C1370       C  0.16835863  0.53228393  0.24410193    -0.33200
C1371       C  0.17175443  0.51496673  0.26508739     0.36000
C1372       C  0.19522590  0.50206281  0.26531110    -0.06100
C1373       C  0.21505257  0.50682038  0.24423504    -0.33100
C1374       C  0.21228940  0.52499652  0.22336381     0.35900
H1375       H  0.15065554  0.54263398  0.24453061     0.16300
O1376       O  0.15689820  0.02270577  0.28716101    -0.60600
H1377       H  0.23296275  0.49670898  0.24405363     0.16300
O1378       O  0.23305497  0.53048852  0.20342239    -0.60700
H1379       H  0.21995238  0.50919572  0.19411346     0.43300
H1380       H  0.13703684  0.99881692  0.28483522     0.43300
C1381       C  0.14744431  0.62194102  0.29172210    -0.05800
C1382       C  0.18234952  0.64150332  0.28353277    -0.33200
C1383       C  0.19072108  0.64593817  0.25870917     0.36000
C1384       C  0.16387962  0.63054702  0.24148834    -0.06100
C1385       C  0.12887974  0.61393673  0.24966653    -0.33100
C1386       C  0.12055359  0.60943100  0.27448976     0.35900
H1387       H  0.20337053  0.65207131  0.29646230     0.16300
O1388       O  0.22535173  0.66377282  0.25170868    -0.60600
H1389       H  0.10767877  0.60252088  0.23693450     0.16300
O1390       O  0.08601028  0.59296006  0.28169844    -0.60700
H1391       H  0.07637770  0.56795580  0.27831528     0.43300
H1392       H  0.23037728  0.68781214  0.24666964     0.43300
C1393       C  0.04464011  0.55688868  0.62462841    -0.05800
C1394       C  0.03125087  0.53446996  0.64567133    -0.33200
C1395       C  0.03682762  0.50592131  0.64906091     0.36000
C1396       C  0.05477364  0.49963195  0.63087256    -0.06100
C1397       C  0.05728641  0.51507098  0.60742823    -0.33100
C1398       C  0.05190205  0.54367554  0.60412397     0.35900
H1399       H  0.02218032  0.54226917  0.66103112     0.16300
O1400       O  0.02834092  0.48686086  0.67094342    -0.60600
H1401       H  0.06868250  0.50895088  0.59250107     0.16300
O1402       O  0.06009707  0.56198883  0.58200332    -0.60700
H1403       H  0.03863645  0.54971297  0.57230589     0.43300
H1404       H  0.04190574  0.50377201  0.68334556     0.43300
C1405       C  0.02242024  0.68868000  0.76194829    -0.05800
C1406       C  0.99182353  0.65665332  0.75837492    -0.33200
C1407       C  0.47235762  0.66034374  0.74542441     0.36000
C1408       C  0.97750972  0.68276380  0.72331121    -0.06100
C1409       C  0.00734327  0.71502451  0.72715927    -0.33100
C1410       C  0.02962147  0.71826506  0.74639245     0.35900
H1411       H  0.98594393  0.63349754  0.76979881     0.16300
O1412       O  0.43953026  0.63129026  0.74676564    -0.60600
H1413       H  0.01378192  0.73759737  0.71490781     0.16300
O1414       O  0.05933071  0.75003344  0.74892264    -0.60700
H1415       H  0.07726819  0.74984713  0.73835218     0.43300
H1416       H  0.44184774  0.61285755  0.73886979     0.43300
C1417       C  0.10085384  0.64967097  0.68082067    -0.05800
C1418       C  0.08432605  0.62319983  0.69946441    -0.33200
C1419       C  0.08955061  0.63072026  0.72394480     0.36000
C1420       C  0.11144928  0.66547472  0.73053372    -0.06100
C1421       C  0.12883286  0.69188065  0.71204110    -0.33100
C1422       C  0.12409441  0.68420332  0.68743665     0.35900
H1423       H  0.06666600  0.59628513  0.69519940     0.16300
O1424       O  0.07091410  0.60417621  0.74116974    -0.60600
H1425       H  0.14567575  0.71880764  0.71665244     0.16300
O1426       O  0.14130832  0.71098485  0.67013080    -0.60700
H1427       H  0.16454988  0.71296151  0.66803174     0.43300
H1428       H  0.08520462  0.59279752  0.74441641     0.43300
C1429       C  0.12906504  0.65728498  0.89705398    -0.05800
C1430       C  0.15691261  0.69116743  0.90041251    -0.33200
C1431       C  0.16742839  0.70317303  0.92373255     0.36000
C1432       C  0.15036577  0.68104414  0.94461698    -0.06100
C1433       C  0.12577194  0.64572220  0.94123161    -0.33100
C1434       C  0.11538477  0.63368558  0.91777029     0.35900
H1435       H  0.16887703  0.70963807  0.88493869     0.16300
O1436       O  0.19392842  0.73703620  0.92577347    -0.60600
H1437       H  0.11299679  0.62773513  0.95679720     0.16300
O1438       O  0.08971948  0.59952280  0.91555647    -0.60700
H1439       H  0.10217362  0.58598973  0.91584745     0.43300
H1440       H  0.18486561  0.75195840  0.91844851     0.43300
C1441       C  0.18559740  0.98228333  0.56557011    -0.05800
C1442       C  0.19755599  0.50670589  0.57673377    -0.33200
C1443       C  0.18083372  0.50709325  0.59796538     0.36000
C1444       C  0.15025177  0.97911358  0.60881344    -0.06100
C1445       C  0.13148056  0.96157519  0.58841180    -0.33100
C1446       C  0.14887880  0.96280084  0.56700996     0.35900
H1447       H  0.22385146  0.52809662  0.57268826     0.16300
O1448       O  0.19723689  0.53527536  0.61222275    -0.60600
H1449       H  0.10311228  0.94720631  0.58893716     0.16300
O1450       O  0.12977538  0.94533963  0.54751595    -0.60700
H1451       H  0.12506576  0.96239054  0.53817302     0.43300
H1452       H  0.21199203  0.52984331  0.62330382     0.43300
C1453       C  0.19747092  0.00599474  0.40753391    -0.05800
C1454       C  0.17609673  0.46239893  0.39727234    -0.33200
C1455       C  0.17420435  0.45249185  0.37333003     0.36000
C1456       C  0.19773887  0.99294261  0.35775972    -0.06100
C1457       C  0.20913345  0.02702263  0.36479118    -0.33100
C1458       C  0.20898894  0.03369536  0.38936412     0.35900
H1459       H  0.16352375  0.44198688  0.41158614     0.16300
O1460       O  0.15480404  0.41758809  0.36884453    -0.60600
H1461       H  0.21991442  0.04888433  0.35138131     0.16300
O1462       O  0.22235015  0.06774539  0.39545617    -0.60700
H1463       H  0.20252502  0.07230637  0.39393089     0.43300
H1464       H  0.16841608  0.40683779  0.37563750     0.43300
C1465       C  0.19166782  0.91121432  0.30034990    -0.05800
C1466       C  0.17400847  0.89923754  0.27854399    -0.33200
C1467       C  0.14019651  0.87002738  0.27920673     0.36000
C1468       C  0.12519166  0.85215520  0.30177796    -0.06100
C1469       C  0.14756908  0.85806314  0.32154038    -0.33100
C1470       C  0.18148796  0.88693624  0.32053193     0.35900
H1471       H  0.18307029  0.91582275  0.26195670     0.16300
O1472       O  0.12095799  0.86182505  0.25839729    -0.60600
H1473       H  0.13765519  0.84297523  0.33864846     0.16300
O1474       O  0.20142024  0.89482693  0.34097595    -0.60700
H1475       H  0.21700379  0.88494744  0.33881911     0.43300
H1476       H  0.11724110  0.88190849  0.25427391     0.43300
C1477       C  0.49773061  0.84221056  0.08979423    -0.05800
C1478       C  0.48201714  0.83382321  0.06701046    -0.33200
C1479       C  0.50148153  0.83580450  0.04641139     0.36000
C1480       C  0.53716764  0.84570766  0.04852592    -0.06100
C1481       C  0.55224847  0.85269112  0.07168497    -0.33100
C1482       C  0.53298613  0.85134810  0.09206443     0.35900
H1483       H  0.45495402  0.82721330  0.06496485     0.16300
O1484       O  0.99439838  0.83528510  0.02528605    -0.60600
H1485       H  0.57941693  0.85992520  0.07406928     0.16300
O1486       O  0.54871691  0.85862502  0.11425706    -0.60700
H1487       H  0.56286660  0.88456780  0.11408563     0.43300
H1488       H  0.99236119  0.85570396  0.01899116     0.43300
C1489       C  0.36591741  0.83901438  0.24463550    -0.05800
C1490       C  0.36349815  0.81547694  0.26394399    -0.33200
C1491       C  0.36917637  0.82558223  0.28795779     0.36000
C1492       C  0.37723157  0.85966014  0.29313212    -0.06100
C1493       C  0.37672622  0.88212680  0.27415677    -0.33100
C1494       C  0.37084587  0.87198534  0.25018142     0.35900
H1495       H  0.35959866  0.78986820  0.26035100     0.16300
O1496       O  0.36869034  0.80256989  0.30594599    -0.60600
H1497       H  0.38175648  0.90813291  0.27780398     0.16300
O1498       O  0.37168256  0.89523317  0.23224232    -0.60700
H1499       H  0.34696202  0.88931765  0.23033521     0.43300
H1500       H  0.39323164  0.80768047  0.30709047     0.43300
C1501       C  0.45143380  0.80489211  0.22930391    -0.05800
C1502       C  0.45175745  0.81978914  0.25123966    -0.33200
C1503       C  0.02148538  0.84511475  0.25277438     0.36000
C1504       C  0.48775663  0.79767670  0.26985307    -0.06100
C1505       C  0.48729462  0.78260403  0.24789889    -0.33100
C1506       C  0.46888977  0.78568120  0.22782923     0.35900
H1507       H  0.01093103  0.86418532  0.21897285     0.16300
O1508       O  0.05409079  0.87414121  0.25410203    -0.60600
H1509       H  0.50155695  0.76867616  0.24623610     0.16300
O1510       O  0.46883496  0.77059277  0.20673948    -0.60700
H1511       H  0.49012941  0.78839958  0.19759844     0.43300
H1512       H  0.05058807  0.89083677  0.26335970     0.43300
C1513       C  0.02914723  0.81813350  0.36016331    -0.05800
C1514       C  0.99354082  0.79767287  0.36654878    -0.33200
C1515       C  0.98246844  0.79073365  0.39098598     0.36000
C1516       C  0.00723883  0.80461999  0.40976406    -0.06100
C1517       C  0.04241133  0.82774283  0.40314447    -0.33100
C1518       C  0.05340238  0.83461705  0.37875763     0.35900
H1519       H  0.46087055  0.77267317  0.35294527     0.16300
O1520       O  0.43919426  0.76238754  0.39765823    -0.60600
H1521       H  0.06202523  0.83912761  0.41696044     0.16300
O1522       O  0.08827038  0.85669839  0.37348534    -0.60700
H1523       H  0.09080554  0.88027119  0.37060011     0.43300
H1524       H  0.43212802  0.73726723  0.39693584     0.43300
C1525       C  0.49072409  0.69201738  0.58577745    -0.05800
C1526       C  0.01150610  0.71414787  0.60424011    -0.33200
C1527       C  0.99965914  0.70819949  0.62845563     0.36000
C1528       C  0.46921520  0.67864580  0.63541161    -0.06100
C1529       C  0.44548714  0.66106436  0.61694565    -0.33100
C1530       C  0.45574026  0.66769822  0.59251094     0.35900
H1531       H  0.03837098  0.73417962  0.60015081     0.16300
O1532       O  0.02238221  0.72786002  0.64587962    -0.60600
H1533       H  0.41819915  0.64266024  0.62125526     0.16300
O1534       O  0.43089797  0.65086938  0.57538855    -0.60700
H1535       H  0.41809775  0.66403138  0.57349875     0.43300
H1536       H  0.03501688  0.71527727  0.65094442     0.43300
C1537       C  0.03387563  0.81363128  0.56490717    -0.05800
C1538       C  0.55741371  0.81587950  0.57985690    -0.33200
C1539       C  0.55657680  0.82035913  0.60483815     0.36000
C1540       C  0.03593843  0.83040964  0.61416728    -0.06100
C1541       C  0.00725300  0.82426803  0.59945538    -0.33100
C1542       C  0.00577762  0.81535847  0.57524302     0.35900
H1543       H  0.58021947  0.81616574  0.57249349     0.16300
O1544       O  0.58421279  0.82479688  0.61890627    -0.60600
H1545       H  0.98407159  0.82237949  0.60759197     0.16300
O1546       O  0.97579752  0.80607923  0.56244063    -0.60700
H1547       H  0.95859385  0.78209785  0.56892297     0.43300
H1548       H  0.57961432  0.80074109  0.62341485     0.43300
C1549       C  0.25531290  0.85018016  0.99998118    -0.05800
C1550       C  0.23798350  0.84110351  0.97776961    -0.33200
C1551       C  0.21035461  0.80703446  0.97516978     0.36000
C1552       C  0.19786710  0.78305475  0.99561213    -0.06100
C1553       C  0.20904444  0.79606781  0.01874677    -0.33100
C1554       C  0.23747502  0.82974653  0.02105258     0.35900
H1555       H  0.24955402  0.85798767  0.96152081     0.16300
O1556       O  0.19715235  0.79706382  0.95251084    -0.60600
H1557       H  0.19811196  0.77919212  0.03505152     0.16300
O1558       O  0.25056444  0.84002838  0.04366740    -0.60700
H1559       H  0.23758129  0.85109787  0.04981774     0.43300
H1560       H  0.21721798  0.80088238  0.94227168     0.43300
C1561       C  0.36412210  0.88123020  0.04163125    -0.05800
C1562       C  0.34364318  0.86060800  0.06186372    -0.33200
C1563       C  0.35917250  0.85697999  0.08324705     0.36000
C1564       C  0.39588075  0.87484179  0.08499304    -0.06100
C1565       C  0.41636165  0.89660041  0.06507028    -0.33100
C1566       C  0.40079143  0.89970907  0.04350278     0.35900
H1567       H  0.31535541  0.84608294  0.06089417     0.16300
O1568       O  0.33816676  0.83618893  0.10239341    -0.60600
H1569       H  0.44467405  0.91045211  0.06590069     0.16300
O1570       O  0.42168981  0.92049102  0.02431775    -0.60700
H1571       H  0.42434098  0.94392186  0.02627077     0.43300
H1572       H  0.33105125  0.81183181  0.09852959     0.43300
C1573       C  0.30393201  0.56799589  0.68595811    -0.05800
C1574       C  0.31401643  0.59281602  0.66632865    -0.33200
C1575       C  0.34577486  0.62423954  0.66688219     0.36000
C1576       C  0.36634255  0.63145876  0.68797129    -0.06100
C1577       C  0.35052857  0.61162648  0.70960032    -0.33100
C1578       C  0.31891689  0.57978035  0.70873294     0.35900
H1579       H  0.30116315  0.58538295  0.64902696     0.16300
O1580       O  0.35903412  0.64440734  0.64563345    -0.60600
H1581       H  0.36458527  0.61810592  0.72649888     0.16300
O1582       O  0.30529397  0.55860317  0.72953610    -0.60700
H1583       H  0.32285618  0.55193785  0.73486070     0.43300
H1584       H  0.34033297  0.64860765  0.63905577     0.43300
C1585       C  0.29850484  0.49243155  0.62402555    -0.05800
C1586       C  0.31423610  0.52314364  0.60861019    -0.33200
C1587       C  0.31303347  0.52160470  0.58332426     0.36000
C1588       C  0.29591645  0.48882683  0.57285809    -0.06100
C1589       C  0.28560682  0.96718931  0.59415508    -0.33100
C1590       C  0.28476578  0.96968443  0.61930480     0.35900
H1591       H  0.32590300  0.54869711  0.61614589     0.16300
O1592       O  0.32644853  0.55229619  0.56919105    -0.60600
H1593       H  0.27412815  0.94128724  0.58720151     0.16300
O1594       O  0.26982999  0.93954686  0.63406678    -0.60700
H1595       H  0.28913708  0.93477279  0.63791307     0.43300
H1596       H  0.30852640  0.55959058  0.56977873     0.43300
C1597       C  0.37142740  0.72474612  0.67951742    -0.05800
C1598       C  0.38994827  0.72639614  0.70081872    -0.33200
C1599       C  0.42502291  0.73517117  0.69919796     0.36000
C1600       C  0.44060152  0.74013015  0.67609624    -0.06100
C1601       C  0.41873106  0.72768351  0.65597660    -0.33100
C1602       C  0.38436086  0.72086423  0.65736856     0.35900
H1603       H  0.37944255  0.72675690  0.71838554     0.16300
O1604       O  0.44451345  0.74223813  0.71988299    -0.60600
H1605       H  0.42942904  0.72831577  0.63825289     0.16300
O1606       O  0.36548910  0.71499024  0.63643448    -0.60700
H1607       H  0.37729159  0.73739395  0.62640499     0.43300
H1608       H  0.44723728  0.76457458  0.72524463     0.43300
C1609       C  0.34796089  0.83598857  0.76094044    -0.05800
C1610       C  0.33694335  0.80016465  0.76308782    -0.33200
C1611       C  0.33249789  0.78151274  0.74248326     0.36000
C1612       C  0.33807006  0.79846776  0.71915323    -0.06100
C1613       C  0.34996794  0.83454145  0.71697625    -0.33100
C1614       C  0.35538534  0.85343645  0.73772845     0.35900
H1615       H  0.33033545  0.78627581  0.78078592     0.16300
O1616       O  0.32070871  0.74620104  0.74528675    -0.60600
H1617       H  0.35519830  0.84809631  0.69920405     0.16300
O1618       O  0.36503948  0.88824457  0.73504616    -0.60700
H1619       H  0.39089367  0.90111889  0.73635325     0.43300
H1620       H  0.34158985  0.74434834  0.74982525     0.43300
C1621       C  0.29509098  0.96920328  0.71550251    -0.05800
C1622       C  0.32144459  0.98789963  0.73204946    -0.33200
C1623       C  0.32906185  0.97055790  0.75089698     0.36000
C1624       C  0.30970679  0.93364026  0.75375175    -0.06100
C1625       C  0.28355454  0.91486735  0.73684073    -0.33100
C1626       C  0.27629199  0.93245117  0.71775190     0.35900
H1627       H  0.34366831  0.50900950  0.72368014     0.16300
O1628       O  0.35471950  0.99016724  0.76682270    -0.60600
H1629       H  0.26852934  0.88648458  0.73845236     0.16300
O1630       O  0.25044059  0.91358897  0.70174208    -0.60700
H1631       H  0.22917398  0.91294807  0.70810443     0.43300
H1632       H  0.38269435  0.48908684  0.75531152     0.43300
C1633       C  0.36934508  0.88453434  0.90230591    -0.05800
C1634       C  0.33941049  0.85448198  0.91166605    -0.33200
C1635       C  0.33227681  0.84955147  0.93657953     0.36000
C1636       C  0.35574609  0.87455348  0.95240900    -0.06100
C1637       C  0.38869860  0.90057420  0.94352730    -0.33100
C1638       C  0.39581558  0.90553890  0.91847002     0.35900
H1639       H  0.31932923  0.83735941  0.89953719     0.16300
O1640       O  0.30102901  0.82177846  0.94513646    -0.60600
H1641       H  0.40726235  0.91951958  0.95556173     0.16300
O1642       O  0.42614789  0.93448179  0.90999587    -0.60700
H1643       H  0.44198560  0.92548393  0.90602621     0.43300
H1644       H  0.28277172  0.82729406  0.93951312     0.43300
C1645       C  0.18166539  0.71470399  0.55576658    -0.05800
C1646       C  0.17180215  0.73032903  0.57326254    -0.33200
C1647       C  0.14793081  0.71007714  0.59197509     0.36000
C1648       C  0.13254931  0.67337094  0.59303944    -0.06100
C1649       C  0.14146888  0.65760711  0.57498381    -0.33100
C1650       C  0.16613359  0.67802236  0.55662251     0.35900
H1651       H  0.18373315  0.75861534  0.57301179     0.16300
O1652       O  0.13940847  0.72639980  0.60887766    -0.60600
H1653       H  0.13010500  0.62938097  0.57550739     0.16300
O1654       O  0.17508148  0.66193559  0.53980825    -0.60700
H1655       H  0.15798066  0.65670150  0.52660652     0.43300
H1656       H  0.15926044  0.73583764  0.62023656     0.43300
C1657       C  0.20296838  0.69977492  0.41508221    -0.05800
C1658       C  0.22219230  0.70014308  0.39473698    -0.33200
C1659       C  0.20545419  0.67927587  0.37534661     0.36000
C1660       C  0.16903990  0.65709609  0.37638419    -0.06100
C1661       C  0.14959102  0.65868464  0.39585910    -0.33100
C1662       C  0.16628671  0.68013083  0.41501706     0.35900
H1663       H  0.25053888  0.71543841  0.39438734     0.16300
O1664       O  0.22516816  0.67848298  0.35661577    -0.60600
H1665       H  0.12133391  0.64233523  0.39664715     0.16300
O1666       O  0.14673667  0.67913348  0.43450319    -0.60700
H1667       H  0.14084993  0.69780083  0.43057288     0.43300
H1668       H  0.22868205  0.69802733  0.34501369     0.43300
C1669       C  0.30092122  0.78738819  0.58287787    -0.05800
C1670       C  0.29478904  0.75419909  0.59109095    -0.33200
C1671       C  0.29913454  0.74707496  0.61532248     0.36000
C1672       C  0.31136341  0.77383437  0.63193252    -0.06100
C1673       C  0.31627183  0.80692658  0.62398129    -0.33100
C1674       C  0.31067057  0.81365761  0.59956548     0.35900
H1675       H  0.28566136  0.73323640  0.57868909     0.16300
O1676       O  0.29153075  0.71367317  0.62251859    -0.60600
H1677       H  0.32548276  0.82780016  0.63642759     0.16300
O1678       O  0.31545310  0.84598679  0.59212652    -0.60700
H1679       H  0.33991405  0.85955188  0.58583359     0.43300
H1680       H  0.26754770  0.70221070  0.62966822     0.43300
C1681       C  0.32397616  0.81080469  0.42500679    -0.05800
C1682       C  0.36042860  0.82447276  0.42429126    -0.33200
C1683       C  0.38009630  0.84212269  0.40315356     0.36000
C1684       C  0.36315299  0.84523445  0.38219092    -0.06100
C1685       C  0.32690319  0.83164317  0.38285949    -0.33100
C1686       C  0.30734820  0.81480368  0.40405287     0.35900
H1687       H  0.37360114  0.82121570  0.44008740     0.16300
O1688       O  0.41571572  0.85599609  0.40308970    -0.60600
H1689       H  0.31374052  0.83463640  0.36695346     0.16300
O1690       O  0.27181035  0.80147143  0.40384152    -0.60700
H1691       H  0.26203378  0.77801584  0.39719841     0.43300
H1692       H  0.41966049  0.83753619  0.39687658     0.43300
C1693       C  0.31522283  0.10260137  0.97148439    -0.05800
C1694       C  0.30903335  0.62695931  0.98520251    -0.33200
C1695       C  0.28147062  0.63398609  0.98323407     0.36000
C1696       C  0.25981563  0.62261158  0.96285364    -0.06100
C1697       C  0.27786416  0.11725104  0.94700455    -0.33100
C1698       C  0.30252753  0.10606288  0.94846468     0.35900
H1699       H  0.32126036  0.62911481  0.00266317     0.16300
O1700       O  0.27111805  0.64380153  0.00326907    -0.60600
H1701       H  0.26413372  0.11444165  0.93011065     0.16300
O1702       O  0.31038000  0.09448896  0.92815597    -0.60700
H1703       H  0.28837851  0.07321363  0.92396407     0.43300
H1704       H  0.28352101  0.66978052  0.00165539     0.43300
C1705       C  0.33186328  0.97197146  0.90506809    -0.05800
C1706       C  0.30651501  0.98227875  0.90499257    -0.33200
C1707       C  0.30145580  0.99695228  0.92538729     0.36000
C1708       C  0.32166652  0.00119563  0.94633206    -0.06100
C1709       C  0.34493412  0.98834444  0.94710565    -0.33100
C1710       C  0.35044294  0.97422114  0.92665403     0.35900
H1711       H  0.29162126  0.98030920  0.88880034     0.16300
O1712       O  0.27724148  0.00782954  0.92447291    -0.60600
H1713       H  0.37220443  0.50567178  0.95947277     0.16300
O1714       O  0.37414151  0.96268290  0.92797712    -0.60700
H1715       H  0.40786801  0.49290938  0.92433496     0.43300
H1716       H  0.25482848  0.98689065  0.92988423     0.43300
C1717       C  0.63254704  0.83146119  0.01816365    -0.05800
C1718       C  0.14478323  0.82418657  0.99509715    -0.33200
C1719       C  0.13032411  0.78826525  0.99225741     0.36000
C1720       C  0.11421651  0.76436147  0.01242264    -0.06100
C1721       C  0.61813873  0.77504658  0.03700630    -0.33100
C1722       C  0.62686441  0.80993500  0.03939866     0.35900
H1723       H  0.15406912  0.84178672  0.97897195     0.16300
O1724       O  0.13004149  0.77668530  0.96959745    -0.60600
H1725       H  0.60854737  0.75705869  0.05290479     0.16300
O1726       O  0.62377653  0.82075774  0.06165607    -0.60700
H1727       H  0.59876190  0.80613949  0.06663168     0.43300
H1728       H  0.12005472  0.78783391  0.95855231     0.43300
C1729       C  0.03004193  0.66050665  0.90812647    -0.05800
C1730       C  0.03918505  0.69412065  0.91499904    -0.33200
C1731       C  0.04246838  0.70180291  0.93952808     0.36000
C1732       C  0.03649632  0.67555923  0.95778552    -0.06100
C1733       C  0.02309429  0.64098797  0.95115819    -0.33100
C1734       C  0.01976403  0.63326694  0.92655819     0.35900
H1735       H  0.04590716  0.71518519  0.90128988     0.16300
O1736       O  0.05154966  0.73507470  0.94560308    -0.60600
H1737       H  0.01744965  0.62028657  0.96495345     0.16300
O1738       O  0.00838865  0.59938318  0.92084602    -0.60700
H1739       H  0.02869408  0.59582806  0.92351997     0.43300
H1740       H  0.07307878  0.75124403  0.93602788     0.43300
C1741       C  0.41668441  0.01616048  0.33851496    -0.05800
C1742       C  0.41913354  0.00228991  0.36154371    -0.33200
C1743       C  0.42628543  0.97472648  0.36358689     0.36000
C1744       C  0.43019702  0.96048559  0.34231930    -0.06100
C1745       C  0.43586295  0.97984205  0.32009822    -0.33100
C1746       C  0.42884895  0.00734531  0.31800232     0.35900
H1747       H  0.41179175  0.00999482  0.37778287     0.16300
O1748       O  0.42461281  0.95912842  0.38612075    -0.60600
H1749       H  0.44129473  0.97098323  0.30362428     0.16300
O1750       O  0.42980739  0.02231325  0.29532113    -0.60700
H1751       H  0.45450887  0.04087527  0.29246394     0.43300
H1752       H  0.44933723  0.96779908  0.39059598     0.43300
C1753       C  0.33356054  0.54501698  0.37193019    -0.05800
C1754       C  0.34937683  0.57150581  0.38841286    -0.33200
C1755       C  0.33527868  0.56669385  0.41191933     0.36000
C1756       C  0.30544073  0.53452574  0.41941197    -0.06100
C1757       C  0.29005738  0.50804996  0.40269830    -0.33100
C1758       C  0.30362520  0.51326508  0.37916537     0.35900
H1759       H  0.37305306  0.59573243  0.38315200     0.16300
O1760       O  0.35071913  0.59363805  0.42725789    -0.60600
H1761       H  0.26098850  0.99328153  0.40718958     0.16300
O1762       O  0.28175444  0.99578360  0.36306951    -0.60700
H1763       H  0.27128091  0.00783163  0.35348520     0.43300
H1764       H  0.36921260  0.59061653  0.43552174     0.43300
C1765       C  0.06452695  0.55136369  0.35741452    -0.05800
C1766       C  0.05330201  0.55651302  0.37983412    -0.33200
C1767       C  0.02584351  0.56374887  0.38029260     0.36000
C1768       C  0.00869940  0.56335099  0.35844475    -0.06100
C1769       C  0.01327080  0.54691205  0.33877158    -0.33100
C1770       C  0.03975222  0.53845287  0.33899761     0.35900
H1771       H  0.07014829  0.56278140  0.39543630     0.16300
O1772       O  0.02039047  0.57672343  0.40078983    -0.60600
H1773       H  0.99977398  0.54481894  0.32195890     0.16300
O1774       O  0.04617538  0.52602992  0.31859561    -0.60700
H1775       H  0.03238633  0.50014133  0.32110711     0.43300
H1776       H  0.99942276  0.55672351  0.40886207     0.43300
C1777       C  0.47472313  0.64412472  0.38439005    -0.05800
C1778       C  0.99641532  0.68523558  0.38499531    -0.33200
C1779       C  0.00019504  0.70486857  0.40514791     0.36000
C1780       C  0.48093048  0.68048657  0.42653003    -0.06100
C1781       C  0.45550887  0.64489088  0.42548389    -0.33100
C1782       C  0.45295391  0.62651991  0.40487529     0.35900
H1783       H  0.00805209  0.69884084  0.36770075     0.16300
O1784       O  0.01708561  0.74071464  0.40209743    -0.60600
H1785       H  0.43764546  0.63130445  0.44071111     0.16300
O1786       O  0.42859415  0.59150661  0.40467606    -0.60700
H1787       H  0.43989242  0.57917530  0.41282418     0.43300
H1788       H  0.04219697  0.74860391  0.40460138     0.43300
C1789       C  0.34956921  0.53394603  0.07845429    -0.05800
C1790       C  0.36575551  0.52430292  0.06097014    -0.33200
C1791       C  0.33854656  0.00510217  0.04299711     0.36000
C1792       C  0.33952801  0.54205744  0.02808489    -0.06100
C1793       C  0.32151395  0.54948318  0.04556808    -0.33100
C1794       C  0.32629808  0.54547266  0.07047469     0.35900
H1795       H  0.38437109  0.51612054  0.06650209     0.16300
O1796       O  0.35136281  0.99061690  0.02759508    -0.60600
H1797       H  0.30430460  0.55940198  0.03990953     0.16300
O1798       O  0.30951355  0.55469448  0.08679854    -0.60700
H1799       H  0.28665663  0.53314142  0.09026788     0.43300
H1800       H  0.37601018  0.00901947  0.02409218     0.43300
C1801       C  0.01869220  0.65406836  0.04739711    -0.05800
C1802       C  0.02010529  0.67189550  0.06822738    -0.33200
C1803       C  0.48528101  0.65647430  0.08223528     0.36000
C1804       C  0.47444739  0.62090928  0.08793669    -0.06100
C1805       C  0.48519829  0.60332895  0.07253563    -0.33100
C1806       C  0.50545156  0.62029648  0.05165788     0.35900
H1807       H  0.03705369  0.70004205  0.06845821     0.16300
O1808       O  0.47546079  0.67471937  0.09650786    -0.60600
H1809       H  0.47731047  0.57597300  0.07630798     0.16300
O1810       O  0.51602630  0.60266386  0.03737262    -0.60700
H1811       H  0.49683362  0.59080737  0.02574068     0.43300
H1812       H  0.01892281  0.67195213  0.11892904     0.43300
C1813       C  0.34131848  0.53876628  0.28280164    -0.05800
C1814       C  0.33832600  0.56682797  0.27249186    -0.33200
C1815       C  0.34146877  0.57382782  0.24724942     0.36000
C1816       C  0.34842480  0.55286172  0.23217330    -0.06100
C1817       C  0.34582240  0.52180524  0.24232310    -0.33100
C1818       C  0.34173167  0.51438071  0.26741154     0.35900
H1819       H  0.33769227  0.58562528  0.28402265     0.16300
O1820       O  0.34308320  0.60418260  0.23810672    -0.60600
H1821       H  0.35033639  0.50497842  0.23110477     0.16300
O1822       O  0.34375239  0.98350490  0.27916234    -0.60700
H1823       H  0.31934266  0.96391373  0.28141928     0.43300
H1824       H  0.31886684  0.59712326  0.23311821     0.43300
C1825       C  0.47648946  0.62619837  0.29584488    -0.05800
C1826       C  0.49244913  0.61612184  0.27844937    -0.33200
C1827       C  0.48669987  0.61852180  0.25357191     0.36000
C1828       C  0.46459869  0.63134436  0.24534242    -0.06100
C1829       C  0.45098929  0.64416193  0.26261777    -0.33100
C1830       C  0.45660403  0.64152669  0.28757737     0.35900
H1831       H  0.50856889  0.60494886  0.28416695     0.16300
O1832       O  0.50111949  0.60611587  0.23773803    -0.60600
H1833       H  0.43416009  0.65453259  0.25698619     0.16300
O1834       O  0.44097758  0.65235267  0.30366589    -0.60700
H1835       H  0.41748235  0.63166982  0.30718449     0.43300
H1836       H  0.52363058  0.62685021  0.23223728     0.43300
O1837       O  0.86313246  0.13639504  0.16816313    -0.81200
O1838       O  0.93928361  0.04588503  0.18977677    -0.65900
O1839       O  0.91390126  0.11522174  0.16912781    -1.12500
C1840       C  0.85226280  0.03367342  0.10803622     1.05700
O1841       O  0.94915947  0.03959329  0.15160182    -0.79100
O1842       O  0.93058409  0.06407258  0.11145450    -0.66700
Ni1843     Ni  0.89330844  0.13121414  0.19168724     1.34900
C1844       C  0.93741234  0.09555977  0.10796763     0.84400
O1845       O  0.95558833  0.10882903  0.20584767    -0.79700
O1846       O  0.92173326  0.12963054  0.21814755    -0.89900
C1847       C  0.95385580  0.03665683  0.17420020     0.84000
O1848       O  0.85694773  0.08502655  0.20094890    -0.68100
O1849       O  0.86357925  0.01428115  0.11768549    -0.87400
C1850       C  0.86287459  0.06234273  0.21166076     0.84800
C1851       C  0.94581808  0.12201159  0.22199609     1.06400
H1852       H  0.87221685  0.03579891  0.16468250     0.38200
O1853       O  0.89371185  0.05324739  0.15659602    -1.10100
O1854       O  0.92524387  0.10980706  0.12142580    -0.66700
Ni1855     Ni  0.88490612  0.08880231  0.14316216     1.26300
O1856       O  0.88832267  0.05812961  0.20538884    -0.67000
O1857       O  0.85732202  0.06192638  0.11692666    -0.79200
C1858       C  0.86178431  0.13810682  0.14509868     0.84200
O1859       O  0.87506711  0.12499632  0.13171287    -0.66400
Ni1860     Ni  0.90557053  0.02775165  0.13572446     1.27400
Ni1861     Ni  0.92554928  0.08050058  0.18090436     1.26100
H1862       H  0.93489306  0.13544071  0.16247835     0.38700
C1863       C  0.97755496  0.11874534  0.36522132     0.79900
N1864       N  0.48816029  0.09893022  0.36905177    -0.78400
C1865       C  0.49202456  0.08172288  0.35076001     0.82300
N1866       N  0.48820839  0.09092282  0.32759567    -0.78400
C1867       C  0.97725836  0.11049311  0.32319692     0.82400
N1868       N  0.97356069  0.12767555  0.34176545    -0.80100
C1869       C  0.85646443  0.03795058  0.35238410     0.79900
N1870       N  0.84301149  0.03807033  0.32995669    -0.78400
C1871       C  0.85706760  0.03197988  0.31024546     0.82300
N1872       N  0.88377612  0.02546608  0.31326070    -0.78400
C1873       C  0.89793466  0.54130315  0.33450259     0.82400
N1874       N  0.88450871  0.54831854  0.35391276    -0.80100
C1875       C  0.54351329  0.18214607  0.98293643     0.79900
N1876       N  0.52270813  0.16059152  0.00171257    -0.78400
C1877       C  0.53147728  0.16986151  0.02508089     0.82300
N1878       N  0.56105414  0.20043759  0.02930227    -0.78400
C1879       C  0.58217064  0.22172218  0.01079175     0.82400
N1880       N  0.57292117  0.21238967  0.98774367    -0.80100
C1881       C  0.84850207  0.55511648  0.00237915     0.79900
N1882       N  0.84646616  0.58417317  0.99578967    -0.78400
C1883       C  0.84441434  0.59314095  0.97213836     0.82300
N1884       N  0.84387399  0.57208579  0.95493412    -0.78400
C1885       C  0.84605371  0.54299581  0.96106486     0.82400
N1886       N  0.84844173  0.53456000  0.98486592    -0.80100
O1887       O  0.72872614  0.31911547  0.49944650    -0.81200
O1888       O  0.79360229  0.21989272  0.52575862    -0.65900
O1889       O  0.77314725  0.29112396  0.50150807    -1.12500
C1890       C  0.72706546  0.21607042  0.43664424     1.05700
O1891       O  0.81928232  0.22531446  0.49071940    -0.79100
O1892       O  0.81590386  0.26500590  0.45370887    -0.66700
Ni1893     Ni  0.75265803  0.30764207  0.52428277     1.34900
C1894       C  0.80837440  0.28759177  0.44511671     0.84400
O1895       O  0.81021127  0.28254680  0.54083036    -0.79700
O1896       O  0.77397001  0.29984977  0.55313820    -0.89900
C1897       C  0.81168307  0.21237955  0.51232273     0.84000
O1898       O  0.71319810  0.26187917  0.52937355    -0.68100
O1899       O  0.75319788  0.21168734  0.44071578    -0.87400
C1900       C  0.71533086  0.23586180  0.53841120     0.84800
C1901       C  0.79734133  0.29158673  0.55741001     1.06400
H1902       H  0.73860271  0.20915806  0.49347124     0.38200
O1903       O  0.75894733  0.23080033  0.48772377    -1.10100
O1904       O  0.78144471  0.28863519  0.45206984    -0.66700
Ni1905     Ni  0.74391562  0.26225112  0.47578845     1.26300
O1906       O  0.74191483  0.23210769  0.53502181    -0.67000
O1907       O  0.71729452  0.23199680  0.45058446    -0.79200
C1908       C  0.71879686  0.31194491  0.47779285     0.84200
O1909       O  0.72545025  0.29234501  0.46542773    -0.66400
Ni1910     Ni  0.78505422  0.21907167  0.46667795     1.27400
Ni1911     Ni  0.78396108  0.25622128  0.51452780     1.26100
H1912       H  0.79425035  0.31098165  0.49465287     0.38700
O1913       O  0.75911242  0.36857467  0.82196001    -0.81200
O1914       O  0.91264838  0.45054021  0.79507270    -0.65900
O1915       O  0.82694624  0.38145922  0.82647022    -1.12500
C1916       C  0.85204252  0.46586177  0.88229544     1.05700
O1917       O  0.93851993  0.45996796  0.83085636    -0.79100
O1918       O  0.89929185  0.42101307  0.86959418    -0.66700
Ni1919     Ni  0.78740041  0.35222422  0.80829417     1.34900
C1920       C  0.87104027  0.39982148  0.88082846     0.84400
O1921       O  0.86531983  0.38331958  0.78518485    -0.79700
O1922       O  0.81360536  0.33440655  0.79374422    -0.89900
C1923       C  0.94005069  0.46460792  0.80786910     0.84000
O1924       O  0.79582889  0.38324631  0.78027227    -0.68100
O1925       O  0.88309353  0.47167571  0.87866076    -0.87400
C1926       C  0.81843141  0.41518247  0.77526738     0.84800
C1927       C  0.84189253  0.35171431  0.78138246     1.06400
H1928       H  0.86828625  0.46471119  0.82534388     0.38200
O1929       O  0.86952229  0.44527980  0.83331381    -1.10100
O1930       O  0.84141119  0.39543846  0.87414839    -0.66700
Ni1931     Ni  0.82474130  0.41326935  0.84763139     1.26300
O1932       O  0.84555783  0.43198820  0.78791591    -0.67000
O1933       O  0.82624268  0.44705472  0.86884944    -0.79200
C1934       C  0.75276533  0.36610589  0.84450640     0.84200
O1935       O  0.77771682  0.38002837  0.85941299    -0.66400
Ni1936     Ni  0.90879252  0.46441265  0.85382554     1.27400
Ni1937     Ni  0.86873270  0.41488020  0.80954822     1.26100
H1938       H  0.83251240  0.36589516  0.83602416     0.38700
C1939       C  0.83793607  0.27858557  0.69772788     0.79900
N1940       N  0.82442515  0.28232158  0.67608305    -0.78400
C1941       C  0.82831722  0.26745158  0.65621446     0.82300
N1942       N  0.84710975  0.25084000  0.65807623    -0.78400
C1943       C  0.86147672  0.24783210  0.67916976     0.82400
N1944       N  0.85664826  0.26177548  0.69895787    -0.80100
C1945       C  0.78753249  0.00731970  0.65611099     0.79900
N1946       N  0.78890559  0.47739964  0.67024422    -0.78400
C1947       C  0.78949740  0.48443954  0.69404352     0.82300
N1948       N  0.79298000  0.02446469  0.70303876    -0.78400
C1949       C  0.79313205  0.04703684  0.68536056     0.82400
N1950       N  0.79023392  0.03798018  0.66203304    -0.80100
C1951       C  0.84780763  0.38130375  0.02077340     0.79900
N1952       N  0.81401455  0.37399396  0.02125568    -0.78400
C1953       C  0.79573420  0.36884781  0.00053801     0.82300
N1954       N  0.81160198  0.37050517  0.97934898    -0.78400
C1955       C  0.84475416  0.37656914  0.97839644     0.82400
N1956       N  0.86322260  0.38221768  0.99920570    -0.80100
O1957       O  0.59880700  0.28227276  0.50032766    -0.81200
O1958       O  0.93424909  0.21416273  0.52490650    -0.65900
O1959       O  0.52592361  0.23869781  0.50203908    -1.12500
C1960       C  0.50093642  0.28674365  0.43154321     1.05700
O1961       O  0.91360698  0.18730912  0.49126460    -0.79100
O1962       O  0.95310841  0.19223172  0.45375393    -0.66700
Ni1963     Ni  0.56343531  0.25628230  0.52498503     1.34900
C1964       C  0.98285243  0.20011196  0.44533552     0.84400
O1965       O  0.98219788  0.19885791  0.54185755    -0.79700
O1966       O  0.53422600  0.23249600  0.55357714    -0.89900
C1967       C  0.90844047  0.19385172  0.51234213     0.84000
O1968       O  0.55923495  0.29631360  0.53024502    -0.68100
O1969       O  0.96000126  0.25449633  0.43794251    -0.87400
C1970       C  0.53218857  0.29413287  0.53998165     0.84800
C1971       C  0.00588988  0.21060734  0.55760571     1.06400
H1972       H  0.97656747  0.27024692  0.48973787     0.38200
O1973       O  0.97766890  0.24983814  0.48536717    -1.10100
O1974       O  0.51392907  0.23122442  0.45217490    -0.66700
Ni1975     Ni  0.52755419  0.26889511  0.47428031     1.26300
O1976       O  0.99943904  0.26722410  0.53322379    -0.67000
O1977       O  0.52567913  0.29673633  0.44688293    -0.79200
C1978       C  0.60154685  0.29173485  0.47791480     0.84200
O1979       O  0.57529302  0.28468592  0.46462454    -0.66400
Ni1980     Ni  0.93840363  0.22251903  0.46567341     1.27400
Ni1981     Ni  0.98023239  0.22533921  0.51398131     1.26100
H1982       H  0.52322515  0.21712087  0.49637929     0.38700
O1983       O  0.85356912  0.24496223  0.16602815    -0.81200
O1984       O  0.95626599  0.40433704  0.19183385    -0.65900
O1985       O  0.88566293  0.31778084  0.16693820    -1.12500
C1986       C  0.97500437  0.34315759  0.10812883     1.05700
O1987       O  0.96810886  0.42944041  0.15483653    -0.79100
O1988       O  0.94217299  0.39527360  0.11460511    -0.66700
Ni1989     Ni  0.86050320  0.27820704  0.18959515     1.34900
C1990       C  0.91335000  0.36947896  0.10871431     0.84400
O1991       O  0.88954497  0.36127973  0.20309097    -0.77300
O1992       O  0.86243503  0.30541435  0.21628007    -0.89900
C1993       C  0.96897963  0.43164204  0.17763062     0.84000
O1994       O  0.90176694  0.27887511  0.20127720    -0.68100
O1995       O  0.98945260  0.37447322  0.11480220    -0.87400
C1996       C  0.92847430  0.30520924  0.20956622     0.84800
C1997       C  0.87299422  0.33744627  0.21948214     1.06400
H1998       H  0.96728782  0.35337699  0.16461117     0.38200
O1999       O  0.95067063  0.35848146  0.15649161    -1.10100
O2000       O  0.90028701  0.33879490  0.11898073    -0.66700
Ni2001     Ni  0.91624332  0.31627247  0.14276532     1.26300
O2002       O  0.93630659  0.33697310  0.20410662    -0.67000
O2003       O  0.94795427  0.31726674  0.11848262    -0.79200
C2004       C  0.85994688  0.24471198  0.14365593     0.84200
O2005       O  0.88113670  0.27212863  0.13090021    -0.66400
Ni2006     Ni  0.97771513  0.39974622  0.13608963     1.27400
Ni2007     Ni  0.92065455  0.36028379  0.18016689     1.26100
H2008       H  0.86862467  0.32241051  0.15898534     0.38700
C2009       C  0.89273525  0.37995813  0.31758393     0.79900
N2010       N  0.87854576  0.35846883  0.33791995    -0.78400
C2011       C  0.88492303  0.37240688  0.36012094     0.82300
N2012       N  0.90433165  0.40762181  0.36176199    -0.78400
C2013       C  0.91886542  0.42911569  0.34170164     0.82400
N2014       N  0.91299009  0.41485283  0.31989105    -0.80100
C2015       C  0.53946150  0.30718556  0.33015309     0.79900
N2016       N  0.57226235  0.31377910  0.32520457    -0.78400
C2017       C  0.58430470  0.31774477  0.30210712     0.82300
N2018       N  0.56269454  0.31498792  0.28356198    -0.78400
C2019       C  0.52924836  0.30723650  0.28799591     0.82400
N2020       N  0.00144062  0.29176450  0.31011292    -0.80100
O2021       O  0.78738678  0.09676445  0.48409197    -0.81200
O2022       O  0.71491490  0.43625439  0.46056583    -0.65900
O2023       O  0.73548489  0.02513229  0.48330171    -1.12500
C2024       C  0.77398183  0.98880939  0.55321759     1.05700
O2025       O  0.69183771  0.41130477  0.49628099    -0.79100
O2026       O  0.69649748  0.45088499  0.53296748    -0.66700
Ni2027     Ni  0.75840671  0.06488936  0.46032407     1.34900
C2028       C  0.69571333  0.98057044  0.53923733     0.84400
O2029       O  0.69791551  0.48516340  0.44639592    -0.79700
O2030       O  0.73227413  0.03968681  0.43289104    -0.89900
C2031       C  0.69800354  0.40873523  0.47438056     0.84000
O2032       O  0.79447941  0.05510807  0.45248809    -0.68100
O2033       O  0.75912748  0.45828540  0.54526085    -0.87400
C2034       C  0.78850474  0.02683306  0.44338655     0.84800
C2035       C  0.70926003  0.51046653  0.43045362     1.06400
H2036       H  0.77225467  0.47655552  0.49143465     0.38200
O2037       O  0.75238932  0.47729486  0.49793196    -1.10100
O2038       O  0.72349425  0.00870535  0.53250898    -0.66700
Ni2039     Ni  0.76223641  0.02148554  0.51046504     1.26300
O2040       O  0.76580696  0.50241147  0.44983052    -0.67000
O2041       O  0.78655708  0.01488976  0.53760435    -0.79200
C2042       C  0.79225508  0.09648351  0.50680717     0.84200
O2043       O  0.77977466  0.06845973  0.52027145    -0.66400
Ni2044     Ni  0.72697934  0.43691623  0.51959399     1.27400
Ni2045     Ni  0.72565855  0.48129675  0.47203802     1.26100
H2046       H  0.71468646  0.02447092  0.48928482     0.38700
O2047       O  0.55506174  0.08080538  0.83151151    -0.81200
O2048       O  0.62839071  0.23609860  0.85077326    -0.65900
O2049       O  0.55850222  0.14637206  0.83061477    -1.12500
C2050       C  0.61994877  0.17491668  0.75768824     1.05700
O2051       O  0.63419271  0.26348814  0.81432557    -0.79100
O2052       O  0.58199306  0.22086550  0.78395507    -0.66700
Ni2053     Ni  0.54035117  0.10562521  0.85204750     1.34900
C2054       C  0.55764524  0.19170084  0.77701437     0.84400
O2055       O  0.56709932  0.18453973  0.87136051    -0.79700
O2056       O  0.52438164  0.12758813  0.87370004    -0.89900
C2057       C  0.63973540  0.26399962  0.83708634     0.84000
O2058       O  0.57914573  0.11861802  0.87330301    -0.68100
O2059       O  0.62698588  0.20599049  0.76167092    -0.87400
C2060       C  0.60777465  0.14713062  0.87534160     0.84800
C2061       C  0.54085297  0.15802434  0.88223915     1.06400
H2062       H  0.63868771  0.19319128  0.81609972     0.38200
O2063       O  0.61729235  0.19324341  0.81219345    -1.10100
O2064       O  0.55652860  0.16262685  0.78247309    -0.66700
Ni2065     Ni  0.58367603  0.14765765  0.80248976     1.26300
O2066       O  0.61892001  0.17205897  0.85903913    -0.67000
O2067       O  0.60987636  0.15074068  0.77443745    -0.79200
C2068       C  0.54539930  0.07526441  0.80955515     0.84200
O2069       O  0.54998823  0.10058821  0.79502461    -0.66400
Ni2070     Ni  0.62917603  0.23200133  0.78944887     1.27400
Ni2071     Ni  0.59286064  0.19029431  0.84165279     1.26100
H2072       H  0.53867366  0.14874171  0.82560780     0.38700
C2073       C  0.59961885  0.14380350  0.65635879     0.79900
N2074       N  0.57289858  0.11174901  0.65122253    -0.78400
C2075       C  0.56672885  0.10103840  0.62820972     0.82300
N2076       N  0.58779537  0.12331365  0.60997304    -0.78400
C2077       C  0.61456014  0.15559198  0.61462030     0.82400
N2078       N  0.62079441  0.16556547  0.63791018    -0.80100
C2079       C  0.96188400  0.18447469  0.65850658     0.79900
N2080       N  0.92694173  0.17033816  0.66205019    -0.78400
C2081       C  0.91280156  0.16553714  0.68455435     0.82300
N2082       N  0.93405455  0.17374020  0.70397330    -0.78400
C2083       C  0.96913031  0.18773797  0.70092517     0.82400
N2084       N  0.47510273  0.18703848  0.67811826    -0.80100
O2085       O  0.56906489  0.05155714  0.14946463    -0.81200
O2086       O  0.72741899  0.12909632  0.12352763    -0.65900
O2087       O  0.63585239  0.05996586  0.14807150    -1.12500
C2088       C  0.66524742  0.13838150  0.21196021     1.05700
O2089       O  0.74618007  0.12722994  0.16049107    -0.79100
O2090       O  0.70962309  0.09996346  0.20169539    -0.66700
Ni2091     Ni  0.59551113  0.03917714  0.12861137     1.34900
C2092       C  0.68216781  0.07064603  0.20596558     0.84400
O2093       O  0.67650547  0.06657062  0.10731649    -0.79700
O2094       O  0.61903195  0.02587943  0.10603449    -0.89900
C2095       C  0.75258368  0.13661549  0.13817437     0.84000
O2096       O  0.60593479  0.07844403  0.10718804    -0.68100
O2097       O  0.69669756  0.15335596  0.20372386    -0.87400
C2098       C  0.63346839  0.10749463  0.10217931     0.84800
C2099       C  0.65021563  0.04155320  0.09718330     1.06400
H2100       H  0.67799315  0.13988502  0.15460936     0.38200
O2101       O  0.68045832  0.12039088  0.16101840    -1.10100
O2102       O  0.65324950  0.06180515  0.19554068    -0.66700
Ni2103     Ni  0.63622394  0.08632517  0.17468554     1.26300
O2104       O  0.66230046  0.11799821  0.11330250    -0.67000
O2105       O  0.63927255  0.11371771  0.20144669    -0.79200
C2106       C  0.56413705  0.04306821  0.17203687     0.84200
O2107       O  0.58996786  0.05139407  0.18593411    -0.66400
Ni2108     Ni  0.72021806  0.14006871  0.18111418     1.27400
Ni2109     Ni  0.68010371  0.09407420  0.13430880     1.26100
H2110       H  0.63860908  0.04066807  0.15452179     0.38700
C2111       C  0.64073018  0.12742044  0.31359035     0.79900
N2112       N  0.61282862  0.09587950  0.32069041    -0.78400
C2113       C  0.60540260  0.08532366  0.34451067     0.82300
N2114       N  0.62633703  0.10714217  0.36129184    -0.78400
C2115       C  0.65432648  0.13878709  0.35474870     0.82400
N2116       N  0.66167250  0.14902783  0.33075877    -0.80100
C2117       C  0.69630086  0.47712456  0.33011035     0.79900
N2118       N  0.69103114  0.99483453  0.30918674    -0.78400
C2119       C  0.68875739  0.98514091  0.28598155     0.82300
N2120       N  0.69822132  0.45887112  0.28417658    -0.78400
C2121       C  0.69573619  0.43686824  0.30323840     0.82400
N2122       N  0.69465628  0.44626561  0.32609916    -0.80100
C2123       C  0.65419280  0.19513594  0.97018677     0.79900
N2124       N  0.67143942  0.23057316  0.97177987    -0.78400
C2125       C  0.67693561  0.24491240  0.99369612     0.82300
N2126       N  0.66535853  0.22349298  0.01399918    -0.78400
C2127       C  0.64832220  0.18823999  0.01304993     0.82400
N2128       N  0.64268580  0.17403943  0.99098315    -0.80100
O2129       O  0.65692499  0.38609320  0.81733502    -0.81200
O2130       O  0.56968874  0.46397264  0.79515244    -0.65900
O2131       O  0.63526822  0.43633794  0.81866754    -1.12500
C2132       C  0.55886546  0.37626600  0.88358396     1.05700
O2133       O  0.54435582  0.46031598  0.83075241    -0.79100
O2134       O  0.59408130  0.46651590  0.86315035    -0.66700
Ni2135     Ni  0.65764397  0.42223784  0.79585095     1.34900
C2136       C  0.61763806  0.46161667  0.87302916     0.84400
O2137       O  0.63568348  0.48497737  0.78368953    -0.79700
O2138       O  0.66196526  0.45660482  0.77096393    -0.89900
C2139       C  0.55013501  0.46993203  0.80846271     0.84000
O2140       O  0.61517834  0.38833835  0.78213569    -0.68100
O2141       O  0.55079048  0.39992147  0.87983922    -0.87400
C2142       C  0.59291519  0.39469790  0.77182464     0.84800
C2143       C  0.65299871  0.47981872  0.76777463     1.06400
H2144       H  0.55255417  0.39464020  0.82180259     0.38200
O2145       O  0.57082490  0.41425667  0.82987818    -1.10100
O2146       O  0.62277605  0.43678196  0.86730148    -0.66700
Ni2147     Ni  0.60418269  0.40183135  0.84276621     1.26300
O2148       O  0.58575054  0.41737725  0.77954234    -0.67000
O2149       O  0.57264653  0.36803353  0.86694653    -0.79200
C2150       C  0.65256416  0.37806121  0.83995747     0.84200
O2151       O  0.63750912  0.38866557  0.85378694    -0.66400
Ni2152     Ni  0.54996103  0.42937265  0.85340385     1.27400
Ni2153     Ni  0.60259561  0.44969208  0.80615383     1.26100
H2154       H  0.65358347  0.45604009  0.82664666     0.38700
C2155       C  0.53311452  0.32180573  0.63786279     0.79900
N2156       N  0.00563367  0.29408840  0.64224762    -0.78400
C2157       C  0.99691109  0.28486309  0.66595318     0.82300
N2158       N  0.51263301  0.29951337  0.68474663    -0.78400
C2159       C  0.54280491  0.33011090  0.67997649     0.82400
N2160       N  0.55326729  0.34194312  0.65622230    -0.80100
C2161       C  0.63092926  0.47923548  0.62755461     0.79900
N2162       N  0.58945834  0.98132935  0.61849350    -0.78400
C2163       C  0.57272840  0.98710623  0.63653242     0.82300
N2164       N  0.58513859  0.98980208  0.65947582    -0.78400
C2165       C  0.62694540  0.49061704  0.66837701     0.82400
N2166       N  0.64495191  0.48659400  0.65009518    -0.80100
C2167       C  0.07151685  0.35453228  0.98414651     0.79900
N2168       N  0.04880016  0.35224118  0.00169097    -0.78400
C2169       C  0.05357041  0.34517703  0.02541794     0.82300
N2170       N  0.08053757  0.33974006  0.03127864    -0.78400
C2171       C  0.10343198  0.34218924  0.01409566     0.82400
N2172       N  0.09859926  0.34977404  0.99075055    -0.80100
C2173       C  0.67554684  0.05301883  0.99557719     0.79900
N2174       N  0.70597689  0.08318297  0.99062099    -0.78400
C2175       C  0.71798305  0.09483797  0.96759402     0.82300
N2176       N  0.69842676  0.07578678  0.94909726    -0.78400
C2177       C  0.66773628  0.04547663  0.95351045     0.82400
N2178       N  0.65647496  0.03359914  0.97690853    -0.80100
C2179       C  0.97649529  0.02173999  0.18148532     0.79900
N2180       N  0.96416458  0.48257135  0.18618260    -0.78400
C2181       C  0.98439509  0.46721174  0.18624209     0.82300
N2182       N  0.51999155  0.49090064  0.18444828    -0.78400
C2183       C  0.52783975  0.02250068  0.18115812     0.82400
N2184       N  0.50748309  0.03766277  0.18111111    -0.80100
C2185       C  0.82371260  0.18810516  0.52052579     0.79900
N2186       N  0.85876144  0.20062613  0.52135710    -0.78400
C2187       C  0.87191030  0.17867719  0.52046503     0.82300
N2188       N  0.84956433  0.14395137  0.51757183    -0.78400
C2189       C  0.81435450  0.13084678  0.51702929     0.82400
N2190       N  0.80178027  0.15334194  0.51774637    -0.80100
C2191       C  0.69582305  0.32512059  0.46828755     0.79900
N2192       N  0.66060562  0.30257148  0.46942470    -0.78400
C2193       C  0.63758956  0.31468492  0.46834057     0.82300
N2194       N  0.65032170  0.34994290  0.46742729    -0.78400
C2195       C  0.68539223  0.37302485  0.46637222     0.82400
N2196       N  0.70789188  0.36027862  0.46756716    -0.80100
C2197       C  0.53231699  0.48854833  0.79900781     0.79900
N2198       N  0.99450054  0.46919987  0.79549442    -0.78400
C2199       C  0.97538478  0.48541533  0.79719758     0.82300
N2200       N  0.99133659  0.02360673  0.80007511    -0.78400
C2201       C  0.52700628  0.03897358  0.80168899     0.82400
N2202       N  0.54381793  0.02016300  0.80129534    -0.80100
C2203       C  0.66553946  0.35506184  0.84933610     0.79900
N2204       N  0.70066873  0.36934283  0.85149282    -0.78400
C2205       C  0.71574399  0.34900763  0.85190952     0.82300
N2206       N  0.69521907  0.31392164  0.84899261    -0.78400
C2207       C  0.65983198  0.29899183  0.84708211     0.82400
N2208       N  0.64545501  0.32005602  0.84640141    -0.80100
C2209       C  0.84397688  0.15648418  0.13460594     0.79900
N2210       N  0.80839931  0.13862618  0.13307937    -0.78400
C2211       C  0.78998696  0.15594371  0.13077821     0.82300
N2212       N  0.80760884  0.19150033  0.13197499    -0.78400
C2213       C  0.84317801  0.20984124  0.13356174     0.82400
N2214       N  0.86088916  0.19195826  0.13537788    -0.80100
C2215       C  0.64113513  0.49819422  0.69333552    -0.05800
C2216       C  0.66896561  0.49291883  0.70035102    -0.33200
C2217       C  0.67720341  0.49209554  0.72495541     0.36000
C2218       C  0.65724688  0.49632036  0.74293590    -0.06100
C2219       C  0.63342266  0.50713765  0.73552912    -0.33100
C2220       C  0.62542992  0.50828823  0.71105234     0.35900
H2221       H  0.68288716  0.48707623  0.68702811     0.16300
O2222       O  0.70353496  0.48533193  0.73135205    -0.60600
H2223       H  0.61527299  0.01190272  0.74582321     0.16300
O2224       O  0.59751863  0.02060105  0.70222698    -0.60700
H2225       H  0.61484176  0.04525429  0.69722103     0.43300
H2226       H  0.69451766  0.46036391  0.72812552     0.43300
C2227       C  0.57815458  0.37757735  0.74853242    -0.05800
C2228       C  0.57272998  0.39630968  0.72897813    -0.33200
C2229       C  0.56402786  0.38268075  0.70571089     0.36000
C2230       C  0.56090288  0.34997484  0.70154789    -0.06100
C2231       C  0.56643173  0.33147405  0.72105840    -0.33100
C2232       C  0.57498929  0.34486423  0.74416146     0.35900
H2233       H  0.57587237  0.42190077  0.73159426     0.16300
O2234       O  0.55763131  0.40101125  0.68741387    -0.60600
H2235       H  0.56292642  0.30570208  0.71853804     0.16300
O2236       O  0.58005795  0.32550818  0.76242676    -0.60700
H2237       H  0.55686114  0.31110734  0.77059862     0.43300
H2238       H  0.53294368  0.39489576  0.68993641     0.43300
C2239       C  0.63679416  0.48280322  0.89386244    -0.05800
C2240       C  0.64531195  0.46689990  0.91362433    -0.33200
C2241       C  0.65916812  0.48455696  0.93497890     0.36000
C2242       C  0.65119907  0.02308805  0.93297201    -0.06100
C2243       C  0.64282696  0.03693318  0.91213725    -0.33100
C2244       C  0.64283351  0.51712818  0.89578895     0.35900
H2245       H  0.64041963  0.44032118  0.91276997     0.16300
O2246       O  0.66780249  0.46849726  0.95361877    -0.60600
H2247       H  0.64576244  0.06286886  0.91199748     0.16300
O2248       O  0.62180296  0.03162762  0.87152663    -0.60700
H2249       H  0.59856853  0.02865199  0.87554662     0.43300
H2250       H  0.69271748  0.47580315  0.95057901     0.43300
C2251       C  0.55649386  0.36274761  0.90924363    -0.05800
C2252       C  0.54083947  0.37317240  0.92667386    -0.33200
C2253       C  0.54660489  0.37069143  0.95151648     0.36000
C2254       C  0.56791489  0.35696787  0.95962742    -0.06100
C2255       C  0.58116462  0.34381172  0.94242344    -0.33100
C2256       C  0.57584220  0.34679037  0.91749779     0.35900
H2257       H  0.52577856  0.38554631  0.92100768     0.16300
O2258       O  0.53346613  0.38428426  0.96740966    -0.60600
H2259       H  0.10742154  0.34852240  0.94700848     0.16300
O2260       O  0.59110221  0.33552906  0.90142960    -0.60700
H2261       H  0.61608969  0.35413368  0.90031338     0.43300
H2262       H  0.50870595  0.36581321  0.97035005     0.43300
C2263       C  0.65510532  0.03346308  0.07221726    -0.05800
C2264       C  0.62678612  0.02165382  0.05608624    -0.33200
C2265       C  0.63245070  0.02535455  0.03082863     0.36000
C2266       C  0.66673052  0.04059073  0.02140209    -0.06100
C2267       C  0.69436052  0.04845733  0.03753945    -0.33100
C2268       C  0.68879323  0.04486932  0.06266561     0.35900
H2269       H  0.60051977  0.01261780  0.06287157     0.16300
O2270       O  0.60475908  0.01674457  0.01567202    -0.60600
H2271       H  0.72089831  0.05931307  0.03062765     0.16300
O2272       O  0.71698496  0.05520908  0.07758965    -0.60700
H2273       H  0.71602634  0.03316642  0.08373231     0.43300
H2274       H  0.60236999  0.03796979  0.01396118     0.43300
C2275       C  0.63976107  0.16662558  0.03629038    -0.05800
C2276       C  0.65214892  0.18369715  0.05819757    -0.33200
C2277       C  0.64887533  0.16478554  0.08012324     0.36000
C2278       C  0.63254527  0.12817991  0.08062886    -0.06100
C2279       C  0.61796999  0.11080633  0.05926605    -0.33100
C2280       C  0.62174966  0.12967084  0.03716798     0.35900
H2281       H  0.66567387  0.21202441  0.05836465     0.16300
O2282       O  0.66244178  0.18237624  0.10081915    -0.60600
H2283       H  0.60524268  0.08245542  0.05941534     0.16300
O2284       O  0.60827338  0.11165895  0.01661477    -0.60700
H2285       H  0.62616317  0.10617750  0.01091966     0.43300
H2286       H  0.64234664  0.18172356  0.10921774     0.43300
C2287       C  0.68362545  0.04674003  0.22515069    -0.05800
C2288       C  0.65395463  0.02595852  0.24004480    -0.33200
C2289       C  0.65568421  0.00629481  0.26023005     0.36000
C2290       C  0.68732067  0.00720262  0.26571169    -0.06100
C2291       C  0.71675928  0.02712203  0.25062772    -0.33100
C2292       C  0.71517734  0.04700756  0.23048917     0.35900
H2293       H  0.62963343  0.02576791  0.23648452     0.16300
O2294       O  0.65657501  0.52166244  0.28703067    -0.60600
H2295       H  0.74101103  0.02731906  0.25452040     0.16300
O2296       O  0.74464968  0.06679893  0.21627316    -0.60700
H2297       H  0.74442276  0.05064810  0.20436422     0.43300
H2298       H  0.63297811  0.50152877  0.28420732     0.43300
C2299       C  0.64658462  0.13828324  0.28734106    -0.05800
C2300       C  0.68065341  0.15953524  0.27790387    -0.33200
C2301       C  0.68705843  0.16406399  0.25274976     0.36000
C2302       C  0.65906832  0.14665153  0.23659737    -0.06100
C2303       C  0.62470962  0.12968889  0.24606495    -0.33100
C2304       C  0.61832994  0.12527987  0.27115092     0.35900
H2305       H  0.70265219  0.17073367  0.29002207     0.16300
O2306       O  0.72108322  0.18281664  0.24445216    -0.60600
H2307       H  0.60259414  0.11729202  0.23413983     0.16300
O2308       O  0.58433477  0.10767545  0.27967622    -0.60700
H2309       H  0.57490373  0.08294427  0.27561706     0.43300
H2310       H  0.72563851  0.20709915  0.24116835     0.43300
C2311       C  0.54605109  0.06279887  0.62478677    -0.05800
C2312       C  0.53093432  0.04001908  0.64551225    -0.33200
C2313       C  0.53306395  0.00936988  0.64839740     0.36000
C2314       C  0.54946759  0.00144999  0.63006184    -0.06100
C2315       C  0.55376376  0.01820127  0.60685897    -0.33100
C2316       C  0.55214308  0.04903212  0.60408316     0.35900
H2317       H  0.52292572  0.04855758  0.66101832     0.16300
O2318       O  0.52272504  0.98953556  0.66996681    -0.60600
H2319       H  0.56394471  0.01103474  0.59177507     0.16300
O2320       O  0.56270620  0.06823368  0.58232159    -0.60700
H2321       H  0.54107841  0.06612344  0.57510356     0.43300
H2322       H  0.53726673  0.00530381  0.68266456     0.43300
C2323       C  0.53133772  0.19143000  0.75991572    -0.05800
C2324       C  0.49776631  0.16172833  0.75969277    -0.33200
C2325       C  0.97933676  0.16653781  0.74160276     0.36000
C2326       C  0.48474627  0.18421557  0.72205057    -0.06100
C2327       C  0.51796411  0.21423034  0.72246799    -0.33100
C2328       C  0.54116764  0.21804218  0.74119618     0.35900
H2329       H  0.48993441  0.14071639  0.77361084     0.16300
O2330       O  0.94688115  0.13704670  0.74122305    -0.60600
H2331       H  0.52621449  0.23452074  0.70796068     0.16300
O2332       O  0.57408654  0.24697594  0.74024488    -0.60700
H2333       H  0.58802690  0.24107084  0.72948036     0.43300
H2334       H  0.95006588  0.12048871  0.73156478     0.43300
C2335       C  0.60771678  0.15227400  0.68222015    -0.05800
C2336       C  0.59075904  0.12525854  0.70041823    -0.33200
C2337       C  0.59651790  0.13174660  0.72499462     0.36000
C2338       C  0.61952264  0.16600635  0.73210891    -0.06100
C2339       C  0.63748439  0.19287054  0.71398972    -0.33100
C2340       C  0.63200299  0.18623079  0.68927324     0.35900
H2341       H  0.57227726  0.09875722  0.69572804     0.16300
O2342       O  0.57723411  0.10481026  0.74181761    -0.60600
H2343       H  0.65504366  0.21946581  0.71897995     0.16300
O2344       O  0.64921653  0.21355129  0.67232216    -0.60700
H2345       H  0.67260309  0.21587314  0.67020418     0.43300
H2346       H  0.59085550  0.09263923  0.74467304     0.43300
C2347       C  0.62600186  0.15384137  0.89907864    -0.05800
C2348       C  0.65619447  0.18647034  0.90192432    -0.33200
C2349       C  0.66678768  0.19957674  0.92497557     0.36000
C2350       C  0.64738706  0.17978934  0.94594121    -0.06100
C2351       C  0.61970828  0.14550645  0.94330207    -0.33100
C2352       C  0.60911339  0.13239755  0.92024668     0.35900
H2353       H  0.67027922  0.20324434  0.88613476     0.16300
O2354       O  0.69581980  0.23208483  0.92669408    -0.60600
H2355       H  0.60478470  0.12937542  0.95907648     0.16300
O2356       O  0.58026017  0.09973956  0.91874186    -0.60700
H2357       H  0.58966137  0.08350005  0.91830102     0.43300
H2358       H  0.68931668  0.24884623  0.91894917     0.43300
C2359       C  0.68510939  0.48040250  0.56308568    -0.05800
C2360       C  0.69108566  0.00609815  0.57695125    -0.33200
C2361       C  0.67356253  0.00422562  0.59840492     0.36000
C2362       C  0.65094610  0.47834321  0.60668329    -0.06100
C2363       C  0.63361754  0.45273932  0.58974131    -0.33100
C2364       C  0.65044326  0.45340434  0.56821992     0.35900
H2365       H  0.71840107  0.02609609  0.57465141     0.16300
O2366       O  0.69059745  0.02903745  0.61508775    -0.60600
H2367       H  0.60675770  0.43216273  0.59318266     0.16300
O2368       O  0.63270001  0.42747455  0.55240494    -0.60700
H2369       H  0.62269865  0.43739316  0.54031164     0.43300
H2370       H  0.70336295  0.02008220  0.62537600     0.43300
C2371       C  0.69947100  0.50338061  0.40455198    -0.05800
C2372       C  0.67499403  0.96658281  0.39657755    -0.33200
C2373       C  0.67074311  0.95692346  0.37244835     0.36000
C2374       C  0.69444054  0.48617282  0.35533557    -0.06100
C2375       C  0.71337938  0.52120442  0.36148095    -0.33100
C2376       C  0.71614734  0.52996901  0.38573413     0.35900
H2377       H  0.66095871  0.94639594  0.41078608     0.16300
O2378       O  0.64774139  0.92274709  0.36760466    -0.60600
H2379       H  0.72781653  0.54178757  0.34757888     0.16300
O2380       O  0.73738594  0.56440504  0.39080380    -0.60700
H2381       H  0.72159562  0.57432744  0.39135457     0.43300
H2382       H  0.66001180  0.90963820  0.37221591     0.43300
C2383       C  0.68359143  0.39958304  0.29914433    -0.05800
C2384       C  0.66882573  0.38677527  0.27662392    -0.33200
C2385       C  0.63794973  0.35432986  0.27593684     0.36000
C2386       C  0.62272250  0.33496665  0.29796270    -0.06100
C2387       C  0.64412183  0.34275363  0.31847695    -0.33100
C2388       C  0.67476660  0.37521262  0.31917405     0.35900
H2389       H  0.67732666  0.40391857  0.26028345     0.16300
O2390       O  0.62073770  0.34419593  0.25440059    -0.60600
H2391       H  0.63442697  0.32663264  0.33522417     0.16300
O2392       O  0.69191469  0.38494718  0.34073496    -0.60700
H2393       H  0.71378280  0.38417010  0.33848609     0.43300
H2394       H  0.61268783  0.36115296  0.25008218     0.43300
C2395       C  0.98985902  0.33843734  0.08591927    -0.05800
C2396       C  0.99350041  0.36023642  0.06524623    -0.33200
C2397       C  0.01260649  0.36144461  0.04481085     0.36000
C2398       C  0.02870531  0.34079674  0.04493414    -0.06100
C2399       C  0.02318664  0.31740215  0.06514072    -0.33100
C2400       C  0.00386368  0.31610580  0.08554108     0.35900
H2401       H  0.98250180  0.37741682  0.06532136     0.16300
O2402       O  0.49090609  0.32945942  0.02378854    -0.60600
H2403       H  0.03470943  0.30070921  0.06541745     0.16300
O2404       O  0.00033019  0.29431475  0.10536816    -0.60700
H2405       H  0.02127223  0.30806410  0.11526619     0.43300
H2406       H  0.48854151  0.34930697  0.01663714     0.43300
C2407       C  0.87013788  0.34743519  0.24417770    -0.05800
C2408       C  0.85922334  0.32197109  0.26367758    -0.33200
C2409       C  0.86564458  0.33171808  0.28775822     0.36000
C2410       C  0.88286922  0.36745835  0.29271966    -0.06100
C2411       C  0.89085074  0.39255546  0.27325876    -0.33100
C2412       C  0.88446091  0.38290577  0.24932318     0.35900
H2413       H  0.84769738  0.29443186  0.26029886     0.16300
O2414       O  0.85608257  0.30613782  0.30608458    -0.60600
H2415       H  0.90293765  0.42022192  0.27637909     0.16300
O2416       O  0.89445375  0.40876914  0.23112253    -0.60700
H2417       H  0.87370479  0.41158883  0.22838651     0.43300
H2418       H  0.87582351  0.30141412  0.30733989     0.43300
C2419       C  0.95022175  0.29892565  0.22759115    -0.05800
C2420       C  0.93410181  0.27504610  0.24764624    -0.33200
C2421       C  0.47146506  0.28240887  0.26668388     0.36000
C2422       C  0.99092649  0.29339524  0.26592661    -0.06100
C2423       C  0.00697227  0.31571342  0.24515245    -0.33100
C2424       C  0.98695232  0.31894317  0.22632644     0.35900
H2425       H  0.42368614  0.26462871  0.24707378     0.16300
O2426       O  0.45563609  0.25696662  0.28506252    -0.60600
H2427       H  0.03517355  0.33200918  0.24392267     0.16300
O2428       O  0.00354657  0.34164352  0.20665755    -0.60700
H2429       H  0.00884355  0.36500306  0.21173381     0.43300
H2430       H  0.46097866  0.23833931  0.28138657     0.43300
C2431       C  0.52911714  0.30692433  0.35577415    -0.05800
C2432       C  0.49370948  0.28928071  0.36279720    -0.33200
C2433       C  0.48372067  0.28525918  0.38733838     0.36000
C2434       C  0.50945275  0.29935620  0.40552407    -0.06100
C2435       C  0.54467826  0.31984522  0.39811977    -0.33100
C2436       C  0.55459181  0.32371613  0.37366097     0.35900
H2437       H  0.95932711  0.25749986  0.35007710     0.16300
O2438       O  0.93706408  0.24435751  0.39468241    -0.60600
H2439       H  0.56503234  0.33128654  0.41145282     0.16300
O2440       O  0.58953907  0.34322199  0.36767684    -0.60700
H2441       H  0.59309449  0.36627657  0.36131536     0.43300
H2442       H  0.93748185  0.22202348  0.39522899     0.43300
C2443       C  0.99650303  0.19987765  0.58372631    -0.05800
C2444       C  0.51382802  0.21609923  0.60275987    -0.33200
C2445       C  0.50262279  0.20994971  0.62714734     0.36000
C2446       C  0.97555040  0.18869902  0.63334783    -0.06100
C2447       C  0.95301879  0.16693501  0.61572618    -0.33100
C2448       C  0.96307302  0.17237363  0.59120293     0.35900
H2449       H  0.54104926  0.23489240  0.59854498     0.16300
O2450       O  0.52632096  0.22821865  0.64452980    -0.60600
H2451       H  0.92695846  0.14594083  0.62085287     0.16300
O2452       O  0.93972081  0.15090176  0.57471210    -0.60700
H2453       H  0.92346617  0.16005922  0.57158188     0.43300
H2454       H  0.53816531  0.21457653  0.64873832     0.43300
C2455       C  0.53739571  0.31514684  0.56176174    -0.05800
C2456       C  0.06776995  0.32662892  0.57150615    -0.33200
C2457       C  0.06983668  0.33446509  0.59610173     0.36000
C2458       C  0.54013468  0.33135715  0.61134928    -0.06100
C2459       C  0.51123666  0.32528543  0.59685592    -0.33100
C2460       C  0.50941607  0.31664304  0.57252744     0.35900
H2461       H  0.08992993  0.32648425  0.56337819     0.16300
O2462       O  0.09933029  0.34136834  0.60879733    -0.60600
H2463       H  0.48812189  0.32321413  0.60524529     0.16300
O2464       O  0.47919541  0.30736737  0.56002540    -0.60700
H2465       H  0.46216021  0.28329711  0.56645786     0.43300
H2466       H  0.09581648  0.31806717  0.61450396     0.43300
C2467       C  0.75705210  0.34969149  0.00119906    -0.05800
C2468       C  0.74007244  0.34109668  0.97881055    -0.33200
C2469       C  0.71209016  0.30734134  0.97593689     0.36000
C2470       C  0.69905876  0.28318873  0.99619756    -0.06100
C2471       C  0.71019411  0.29565004  0.01947735    -0.33100
C2472       C  0.73898361  0.32889994  0.02212258     0.35900
H2473       H  0.75206002  0.35809443  0.96267278     0.16300
O2474       O  0.69927518  0.29773750  0.95315281    -0.60600
H2475       H  0.69895970  0.27856180  0.03565798     0.16300
O2476       O  0.75219369  0.33809258  0.04487081    -0.60700
H2477       H  0.74722470  0.35683406  0.04892309     0.43300
H2478       H  0.71847494  0.29786787  0.94389629     0.43300
C2479       C  0.86479698  0.38154859  0.04401831    -0.05800
C2480       C  0.84398658  0.36020891  0.06395101    -0.33200
C2481       C  0.85924495  0.35669520  0.08549023     0.36000
C2482       C  0.89580143  0.37529926  0.08756468    -0.06100
C2483       C  0.91652107  0.39807906  0.06810883    -0.33100
C2484       C  0.90130419  0.40112779  0.04641743     0.35900
H2485       H  0.81577947  0.34501001  0.06257102     0.16300
O2486       O  0.83823452  0.33533387  0.10445337    -0.60600
H2487       H  0.94479664  0.41256821  0.06934412     0.16300
O2488       O  0.92238478  0.42280977  0.02759775    -0.60700
H2489       H  0.92318320  0.44547598  0.02930461     0.43300
H2490       H  0.83215437  0.31124689  0.10060509     0.43300
C2491       C  0.80890027  0.08474830  0.68999625    -0.05800
C2492       C  0.81845941  0.10821731  0.66953999    -0.33200
C2493       C  0.85191154  0.13758744  0.66787608     0.36000
C2494       C  0.87429089  0.14554406  0.68794350    -0.06100
C2495       C  0.85988454  0.12810780  0.71054479    -0.33100
C2496       C  0.82703794  0.09742865  0.71171116     0.35900
H2497       H  0.80329641  0.10044735  0.65312789     0.16300
O2498       O  0.86359690  0.15580492  0.64584889    -0.60600
H2499       H  0.87558100  0.13537161  0.72672646     0.16300
O2500       O  0.81459832  0.07821335  0.73340915    -0.60700
H2501       H  0.83371463  0.07478014  0.74011788     0.43300
H2502       H  0.86689761  0.14008560  0.63534313     0.43300
C2503       C  0.78911813  0.00165435  0.62991643    -0.05800
C2504       C  0.80481702  0.03109431  0.61332903    -0.33200
C2505       C  0.80309118  0.02747682  0.58821905     0.36000
C2506       C  0.78538969  0.99381329  0.57899397    -0.06100
C2507       C  0.78373084  0.46249889  0.59136249    -0.33100
C2508       C  0.78155072  0.46394267  0.61655922     0.35900
H2509       H  0.81762000  0.05736298  0.61978264     0.16300
O2510       O  0.81730882  0.05715345  0.57297663    -0.60600
H2511       H  0.77360599  0.43700025  0.58397802     0.16300
O2512       O  0.76677789  0.43335907  0.63085042    -0.60700
H2513       H  0.78626709  0.42885166  0.63464455     0.43300
H2514       H  0.79973535  0.06496037  0.57245935     0.43300
C2515       C  0.88999125  0.23939992  0.67869220    -0.05800
C2516       C  0.91142567  0.24586548  0.69907304    -0.33200
C2517       C  0.94671270  0.25583907  0.69609950     0.36000
C2518       C  0.96028682  0.25866551  0.67254428    -0.06100
C2519       C  0.93680362  0.24382805  0.65357861    -0.33100
C2520       C  0.90189457  0.23464637  0.65636426     0.35900
H2521       H  0.90227925  0.24759952  0.71680044     0.16300
O2522       O  0.96812568  0.26568175  0.71585583    -0.60600
H2523       H  0.94614138  0.24326483  0.63561909     0.16300
O2524       O  0.88078617  0.22460050  0.63645585    -0.60700
H2525       H  0.88980749  0.24583364  0.62526663     0.43300
H2526       H  0.97116965  0.28867024  0.71994482     0.43300
C2527       C  0.84510947  0.33486338  0.76023356    -0.05800
C2528       C  0.83844749  0.30031492  0.76301903    -0.33200
C2529       C  0.83504276  0.28137489  0.74271556     0.36000
C2530       C  0.83727210  0.29666430  0.71917247    -0.06100
C2531       C  0.84301950  0.33096425  0.71640046    -0.33100
C2532       C  0.84719129  0.35017288  0.73676100     0.35900
H2533       H  0.83527966  0.28779516  0.78101477     0.16300
O2534       O  0.82811722  0.24740478  0.74604549    -0.60600
H2535       H  0.84495665  0.34313759  0.69843757     0.16300
O2536       O  0.85086673  0.38294689  0.73361941    -0.60700
H2537       H  0.87635724  0.39921170  0.73125400     0.43300
H2538       H  0.85086800  0.24920076  0.75027191     0.43300
C2539       C  0.79847796  0.46585261  0.71325491    -0.05800
C2540       C  0.82291336  0.48586401  0.73058343    -0.33200
C2541       C  0.83035424  0.46990866  0.75047556     0.36000
C2542       C  0.81281872  0.43305814  0.75359621    -0.06100
C2543       C  0.78947789  0.41297703  0.73559624    -0.33100
C2544       C  0.78242071  0.42915965  0.71544926     0.35900
H2545       H  0.82121174  0.01706699  0.74042507     0.16300
O2546       O  0.85366586  0.49070859  0.76724003    -0.60600
H2547       H  0.77637988  0.38459900  0.73721401     0.16300
O2548       O  0.75920653  0.40893609  0.69844370    -0.60700
H2549       H  0.73577109  0.40253748  0.70495940     0.43300
H2550       H  0.86130298  0.00258841  0.77390206     0.43300
C2551       C  0.87249860  0.38395918  0.90475646    -0.05800
C2552       C  0.84198589  0.35428986  0.91383006    -0.33200
C2553       C  0.83453985  0.34903469  0.93870962     0.36000
C2554       C  0.85805436  0.37356281  0.95479439    -0.06100
C2555       C  0.89132990  0.39922150  0.94619922    -0.33100
C2556       C  0.89888102  0.40433085  0.92119234     0.35900
H2557       H  0.82193321  0.33762127  0.90151213     0.16300
O2558       O  0.80297026  0.32146305  0.94699280    -0.60600
H2559       H  0.90992651  0.41778999  0.95841396     0.16300
O2560       O  0.92977607  0.43281134  0.91301244    -0.60700
H2561       H  0.94514128  0.42319755  0.90919901     0.43300
H2562       H  0.78501498  0.32732384  0.94120092     0.43300
C2563       C  0.68855664  0.21219402  0.55650906    -0.05800
C2564       C  0.69989565  0.20645766  0.57929484    -0.33200
C2565       C  0.67610317  0.18912896  0.59854693     0.36000
C2566       C  0.64015997  0.17648243  0.59505719    -0.06100
C2567       C  0.62859827  0.18116695  0.57204644    -0.33100
C2568       C  0.65266676  0.19966025  0.55295913     0.35900
H2569       H  0.72754228  0.21665454  0.58246662     0.16300
O2570       O  0.68825554  0.18441370  0.62064081    -0.60600
H2571       H  0.60092992  0.17096376  0.56900745     0.16300
O2572       O  0.64089842  0.20476962  0.53082453    -0.60700
H2573       H  0.63806978  0.22554201  0.53233173     0.43300
H2574       H  0.68676258  0.16122828  0.62037185     0.43300
C2575       C  0.70769534  0.20130845  0.41447620    -0.05800
C2576       C  0.72641536  0.20539940  0.39289212    -0.33200
C2577       C  0.70925668  0.18673698  0.37260597     0.36000
C2578       C  0.67309229  0.16285614  0.37409261    -0.06100
C2579       C  0.65428569  0.16022769  0.39531955    -0.33100
C2580       C  0.67127470  0.17947741  0.41530935     0.35900
H2581       H  0.75461034  0.22228860  0.39205819     0.16300
O2582       O  0.72841537  0.19004403  0.35222659    -0.60600
H2583       H  0.62628490  0.14240980  0.39671071     0.16300
O2584       O  0.65250633  0.17435766  0.43626797    -0.60700
H2585       H  0.64352308  0.19096142  0.43440643     0.43300
H2586       H  0.72977124  0.21024740  0.34241327     0.43300
C2587       C  0.80596159  0.28719304  0.58282991    -0.05800
C2588       C  0.80738111  0.25684286  0.58959415    -0.33200
C2589       C  0.81193989  0.24906035  0.61368749     0.36000
C2590       C  0.81681954  0.27259611  0.63170685    -0.06100
C2591       C  0.81454440  0.30268821  0.62512431    -0.33100
C2592       C  0.80880763  0.30987842  0.60086055     0.35900
H2593       H  0.80373840  0.23828117  0.57619183     0.16300
O2594       O  0.81162037  0.21818777  0.61935276    -0.60600
H2595       H  0.81822865  0.32114629  0.63859860     0.16300
O2596       O  0.80663808  0.33934534  0.59491712    -0.60700
H2597       H  0.83066516  0.35755350  0.58964986     0.43300
H2598       H  0.78764669  0.20166485  0.62573562     0.43300
C2599       C  0.83030405  0.31133540  0.42461928    -0.05800
C2600       C  0.84891376  0.30052192  0.41007589    -0.33200
C2601       C  0.86626528  0.31970617  0.38869415     0.36000
C2602       C  0.86621515  0.35080599  0.38197806    -0.06100
C2603       C  0.84849832  0.36218845  0.39667878    -0.33100
C2604       C  0.83011597  0.34244439  0.41760614     0.35900
H2605       H  0.84907484  0.27641540  0.41480315     0.16300
O2606       O  0.88404371  0.30845909  0.37491908    -0.60600
H2607       H  0.84827342  0.38619065  0.39161049     0.16300
O2608       O  0.81245004  0.35403285  0.43116268    -0.60700
H2609       H  0.78992520  0.34641254  0.42281367     0.43300
H2610       H  0.86617934  0.29106815  0.36434844     0.43300
C2611       C  0.83238480  0.61866031  0.96623182    -0.05800
C2612       C  0.80369539  0.12091277  0.98745217    -0.33200
C2613       C  0.77720833  0.12936174  0.98454641     0.36000
C2614       C  0.75620930  0.11848610  0.96378958    -0.06100
C2615       C  0.78487807  0.61816934  0.94351750    -0.33100
C2616       C  0.81657088  0.61793910  0.94371532     0.35900
H2617       H  0.81531403  0.12306879  0.00514905     0.16300
O2618       O  0.76692592  0.14013341  0.00411563    -0.60600
H2619       H  0.76954109  0.61133886  0.92715982     0.16300
O2620       O  0.82941535  0.61259445  0.92277688    -0.60700
H2621       H  0.80981534  0.59165555  0.91577613     0.43300
H2622       H  0.77880830  0.16602388  0.00168790     0.43300
C2623       C  0.84669523  0.48164778  0.90354761    -0.05800
C2624       C  0.82536609  0.49680255  0.90195690    -0.33200
C2625       C  0.82395081  0.51584651  0.92095641     0.36000
C2626       C  0.84409779  0.51995756  0.94194014    -0.06100
C2627       C  0.86336981  0.50261225  0.94421882    -0.33100
C2628       C  0.86499821  0.48381496  0.92518134     0.35900
H2629       H  0.81076146  0.49496038  0.88562980     0.16300
O2630       O  0.80290353  0.53046562  0.91872482    -0.60600
H2631       H  0.87671775  0.01108002  0.96056970     0.16300
O2632       O  0.88430288  0.46730215  0.92797085    -0.60700
H2633       H  0.91189572  0.00517023  0.92147210     0.43300
H2634       H  0.78049875  0.51311557  0.92692348     0.43300
C2635       C  0.12478039  0.32509090  0.01879034    -0.05800
C2636       C  0.64225303  0.31834864  0.99897818    -0.33200
C2637       C  0.62796155  0.28253969  0.99578276     0.36000
C2638       C  0.60964404  0.25807149  0.01528274    -0.06100
C2639       C  0.10901805  0.26834932  0.03785144    -0.33100
C2640       C  0.11777712  0.30329429  0.04006542     0.35900
H2641       H  0.65309293  0.33644009  0.98318734     0.16300
O2642       O  0.62971418  0.27163167  0.97324869    -0.60600
H2643       H  0.09853555  0.25026691  0.05365568     0.16300
O2644       O  0.11413407  0.31423916  0.06213350    -0.60700
H2645       H  0.08929830  0.29883521  0.06726357     0.43300
H2646       H  0.62126183  0.28354598  0.96155730     0.43300
C2647       C  0.53173927  0.16194139  0.90726459    -0.05800
C2648       C  0.54139451  0.19541189  0.91470032    -0.33200
C2649       C  0.54267202  0.20173311  0.93942472     0.36000
C2650       C  0.53444680  0.17429725  0.95721782    -0.06100
C2651       C  0.52131073  0.14015114  0.94982172    -0.33100
C2652       C  0.51967958  0.13375779  0.92507343     0.35900
H2653       H  0.54974939  0.21720214  0.90135713     0.16300
O2654       O  0.55194035  0.23477972  0.94616743    -0.60600
H2655       H  0.51452743  0.11871870  0.96322655     0.16300
O2656       O  0.50961067  0.10042742  0.91873286    -0.60700
H2657       H  0.48369449  0.08828925  0.91820232     0.43300
H2658       H  0.57437706  0.25104243  0.93757509     0.43300
C2659       C  0.91870422  0.52361026  0.33780822    -0.05800
C2660       C  0.92019155  0.50935054  0.36092328    -0.33200
C2661       C  0.92652921  0.48128358  0.36323081     0.36000
C2662       C  0.93063194  0.46687889  0.34215472    -0.06100
C2663       C  0.93627582  0.48582814  0.31975600    -0.33100
C2664       C  0.93016616  0.51388132  0.31740351     0.35900
H2665       H  0.91309718  0.51750089  0.37705219     0.16300
O2666       O  0.92439467  0.46569478  0.38583852    -0.60600
H2667       H  0.94166772  0.47672192  0.30338847     0.16300
O2668       O  0.93186542  0.52900375  0.29464712    -0.60700
H2669       H  0.95716797  0.54401372  0.29075088     0.43300
H2670       H  0.94859783  0.47805338  0.39202376     0.43300
C2671       C  0.83846777  0.03798471  0.37461247    -0.05800
C2672       C  0.85789667  0.05958937  0.39325529    -0.33200
C2673       C  0.84263424  0.05571003  0.41621059     0.36000
C2674       C  0.80770634  0.02918943  0.42093242    -0.06100
C2675       C  0.78839997  0.00767950  0.40211439    -0.33100
C2676       C  0.80332197  0.01226188  0.37906293     0.35900
H2677       H  0.88499893  0.07943864  0.38992841     0.16300
O2678       O  0.86201675  0.07789962  0.43380992    -0.60600
H2679       H  0.76577479  0.49504587  0.40536236     0.16300
O2680       O  0.78780591  0.50161296  0.36113519    -0.60700
H2681       H  0.77440616  0.51134326  0.35250833     0.43300
H2682       H  0.87150606  0.06509515  0.44363358     0.43300
C2683       C  0.56955210  0.05740461  0.35196476    -0.05800
C2684       C  0.55716836  0.05947173  0.37488042    -0.33200
C2685       C  0.52609893  0.06059549  0.37643882     0.36000
C2686       C  0.50802253  0.05926065  0.35489663    -0.06100
C2687       C  0.51474543  0.04527616  0.33464111    -0.33100
C2688       C  0.54479450  0.04244670  0.33368732     0.35900
H2689       H  0.57439735  0.06725453  0.39029378     0.16300
O2690       O  0.51753194  0.06917419  0.39781652    -0.60600
H2691       H  0.50024183  0.04179015  0.31812595     0.16300
O2692       O  0.55350749  0.03345236  0.31254184    -0.60700
H2693       H  0.54039433  0.00745512  0.31330822     0.43300
H2694       H  0.49624259  0.04756386  0.40399667     0.43300
C2695       C  0.97748446  0.13918472  0.38556176    -0.05800
C2696       C  0.50183141  0.18169273  0.38381642    -0.33200
C2697       C  0.50511253  0.20103051  0.40406018     0.36000
C2698       C  0.98383847  0.17903137  0.42574617    -0.06100
C2699       C  0.96302314  0.14234092  0.42753487    -0.33100
C2700       C  0.96067563  0.12238721  0.40791070     0.35900
H2701       H  0.51723142  0.19521767  0.36753463     0.16300
O2702       O  0.52638838  0.23675250  0.40216532    -0.60600
H2703       H  0.94868813  0.12912075  0.44423230     0.16300
O2704       O  0.94110737  0.08650746  0.41052376    -0.60700
H2705       H  0.95654565  0.07897642  0.41880156     0.43300
H2706       H  0.54991121  0.24099559  0.40686663     0.43300
C2707       C  0.83763767  0.02640422  0.08336778    -0.05800
C2708       C  0.85330745  0.01510408  0.06670399    -0.33200
C2709       C  0.86180499  0.52421195  0.03757539     0.36000
C2710       C  0.82996072  0.03424453  0.03279427    -0.06100
C2711       C  0.81184511  0.04270883  0.04950487    -0.33100
C2712       C  0.81553960  0.03889408  0.07455785     0.35900
H2713       H  0.87096863  0.00604145  0.07298075     0.16300
O2714       O  0.87601933  0.51116899  0.02208772    -0.60600
H2715       H  0.79565412  0.05351412  0.04313898     0.16300
O2716       O  0.79916788  0.04948164  0.09020993    -0.60700
H2717       H  0.77546344  0.02884585  0.09306697     0.43300
H2718       H  0.90103290  0.52950277  0.02017660     0.43300
C2719       C  0.50755823  0.14956391  0.04591290    -0.05800
C2720       C  0.50780203  0.16737632  0.06642329    -0.33200
C2721       C  0.98361558  0.15145969  0.08650194     0.36000
C2722       C  0.95960082  0.11536806  0.08652381    -0.06100
C2723       C  0.95694768  0.09727087  0.06562194    -0.33100
C2724       C  0.97802593  0.11460013  0.04503032     0.35900
H2725       H  0.52486880  0.19549196  0.06680929     0.16300
O2726       O  0.98667620  0.17008657  0.10638470    -0.60600
H2727       H  0.93827299  0.06947653  0.06518709     0.16300
O2728       O  0.97510463  0.09585723  0.02524299    -0.60700
H2729       H  0.95512024  0.09469836  0.01603763     0.43300
H2730       H  0.50601007  0.16928833  0.11627348     0.43300
C2731       C  0.84376721  0.03105433  0.28544079    -0.05800
C2732       C  0.83706827  0.05742271  0.27648987    -0.33200
C2733       C  0.83706193  0.06441068  0.25136025     0.36000
C2734       C  0.84468119  0.04526190  0.23506331    -0.06100
C2735       C  0.84546911  0.01534400  0.24411585    -0.33100
C2736       C  0.84480873  0.00801774  0.26909534     0.35900
H2737       H  0.83560965  0.07498285  0.28880283     0.16300
O2738       O  0.83496998  0.09327591  0.24324488    -0.60600
H2739       H  0.85045460  0.99978558  0.23194629     0.16300
O2740       O  0.84085713  0.48737984  0.28258491    -0.60700
H2741       H  0.81644655  0.47200299  0.28860002     0.43300
H2742       H  0.80959287  0.08531801  0.24324191     0.43300
C2743       C  0.97313045  0.11892973  0.29729348    -0.05800
C2744       C  0.99064480  0.11204255  0.27905417    -0.33200
C2745       C  0.98410451  0.11522581  0.25434038     0.36000
C2746       C  0.95942541  0.12533972  0.24727417    -0.06100
C2747       C  0.94350906  0.13420417  0.26557264    -0.33100
C2748       C  0.94995191  0.13084873  0.29024884     0.35900
H2749       H  0.00891271  0.10314283  0.28396882     0.16300
O2750       O  0.00066454  0.10658019  0.23744796    -0.60600
H2751       H  0.92433160  0.14199649  0.26094552     0.16300
O2752       O  0.93186720  0.13740193  0.30728469    -0.60700
H2753       H  0.91003267  0.11470204  0.31065107     0.43300
H2754       H  0.02429126  0.12752249  0.23513835     0.43300
O2755       O  0.86941376  0.63440830  0.16449925    -0.81200
O2756       O  0.94140660  0.54247918  0.19144840    -0.65900
O2757       O  0.92153584  0.61521697  0.16913569    -1.12500
C2758       C  0.86574209  0.53918372  0.10421669     1.05700
O2759       O  0.95410036  0.53680179  0.15371443    -0.79100
O2760       O  0.94319998  0.56543721  0.11263662    -0.66700
Ni2761     Ni  0.89789077  0.63025208  0.18967219     1.34900
C2762       C  0.95204309  0.59755242  0.10960532     0.84400
O2763       O  0.95740761  0.60557365  0.20829952    -0.79700
O2764       O  0.92422711  0.62887061  0.21759097    -0.89900
C2765       C  0.95660713  0.53302758  0.17650587     0.84000
O2766       O  0.86111276  0.58382349  0.19660818    -0.68100
O2767       O  0.87489514  0.51809156  0.11401008    -0.87400
C2768       C  0.86588404  0.56233087  0.20974538     0.84800
C2769       C  0.94752174  0.62059677  0.22302977     1.06400
H2770       H  0.87810117  0.53659811  0.16235035     0.38200
O2771       O  0.90081004  0.55359113  0.15555320    -1.10100
O2772       O  0.93946251  0.61207045  0.12244555    -0.66700
Ni2773     Ni  0.89623994  0.59152502  0.14135423     1.26300
O2774       O  0.89062555  0.55624511  0.20507115    -0.67000
O2775       O  0.87180064  0.56740272  0.11356058    -0.79200
C2776       C  0.87305640  0.63995251  0.14162660     0.84200
O2777       O  0.89016099  0.62988386  0.12922320    -0.66400
Ni2778     Ni  0.91359711  0.52818402  0.13510898     1.27400
Ni2779     Ni  0.92999707  0.57863143  0.18184493     1.26100
H2780       H  0.94362701  0.63543891  0.16404741     0.38700
C2781       C  0.98009160  0.62840972  0.36689670     0.79900
N2782       N  0.48357134  0.59856796  0.36912493    -0.78400
C2783       C  0.48893064  0.58205597  0.35112205     0.82300
N2784       N  0.48646518  0.59170329  0.32778544    -0.78400
C2785       C  0.97998976  0.61925844  0.32497413     0.82400
N2786       N  0.97576596  0.63666040  0.34324947    -0.80100
C2787       C  0.85776696  0.55507260  0.35131713     0.79900
N2788       N  0.84345819  0.55381880  0.32895669    -0.78400
C2789       C  0.85731106  0.54711590  0.30939442     0.82300
N2790       N  0.88423067  0.54106516  0.31252777    -0.78400
C2791       C  0.89696687  0.02477181  0.33535494     0.82400
N2792       N  0.88309005  0.03101693  0.35491366    -0.80100
C2793       C  0.54716764  0.68609338  0.98268600     0.79900
N2794       N  0.52781896  0.66491040  0.00201230    -0.78400
C2795       C  0.53849132  0.67466047  0.02496219     0.82300
N2796       N  0.56822578  0.70516814  0.02847158    -0.78400
C2797       C  0.58806676  0.72612517  0.00944814     0.82400
N2798       N  0.57708025  0.71651689  0.98661843    -0.80100
C2799       C  0.82917120  0.04315307  0.00655579     0.79900
N2800       N  0.82430859  0.07047574  0.99965740    -0.78400
C2801       C  0.82220510  0.07874583  0.97584623     0.82300
N2802       N  0.82402532  0.05859166  0.95892277    -0.78400
C2803       C  0.82888295  0.03125416  0.96541027     0.82400
N2804       N  0.83178565  0.02365825  0.98927375    -0.80100
O2805       O  0.72556492  0.81948224  0.50164218    -0.81200
O2806       O  0.78399888  0.71461226  0.53063991    -0.65900
O2807       O  0.76454812  0.78617690  0.50529258    -1.12500
C2808       C  0.71693125  0.70960847  0.44187020     1.05700
O2809       O  0.81070837  0.72192858  0.49566065    -0.79100
O2810       O  0.80628515  0.76091022  0.45874771    -0.66700
Ni2811     Ni  0.74670936  0.80591630  0.52746405     1.34900
C2812       C  0.79706507  0.78158693  0.44895116     0.84400
O2813       O  0.80065868  0.77773035  0.54519660    -0.79700
O2814       O  0.76550408  0.79641808  0.55701588    -0.89900
C2815       C  0.80362002  0.70883937  0.51725502     0.84000
O2816       O  0.70566080  0.76157174  0.53288818    -0.68100
O2817       O  0.74381575  0.70639673  0.44585799    -0.87400
C2818       C  0.70547735  0.73415180  0.54180139     0.84800
C2819       C  0.78777714  0.78684022  0.56169009     1.06400
H2820       H  0.72933699  0.70340477  0.49834507     0.38200
O2821       O  0.74938688  0.72525483  0.49253295    -1.10100
O2822       O  0.76955204  0.78160689  0.45565476    -0.66700
Ni2823     Ni  0.73373710  0.75603785  0.48055175     1.26300
O2824       O  0.73105894  0.72836035  0.53886778    -0.67000
O2825       O  0.70624672  0.72458801  0.45604464    -0.79200
C2826       C  0.71239873  0.80902000  0.48105076     0.84200
O2827       O  0.71458282  0.78536090  0.47033835    -0.66400
Ni2828     Ni  0.77618040  0.71460040  0.47161930     1.27400
Ni2829     Ni  0.77430442  0.75104342  0.51907936     1.26100
H2830       H  0.78575786  0.80505145  0.49776314     0.38700
O2831       O  0.75625420  0.86848571  0.82316383    -0.81200
O2832       O  0.91088370  0.95302166  0.79653062    -0.65900
O2833       O  0.82492032  0.88247122  0.82722602    -1.12500
C2834       C  0.84688863  0.96498567  0.88421263     1.05700
O2835       O  0.93696610  0.96631575  0.83229888    -0.79100
O2836       O  0.89837247  0.92535667  0.87058608    -0.66700
Ni2837     Ni  0.78543000  0.85354253  0.80871847     1.34900
C2838       C  0.87064578  0.90276586  0.88178255     0.84400
O2839       O  0.86466463  0.88568441  0.78635877    -0.79700
O2840       O  0.81210006  0.83693709  0.79321924    -0.89900
C2841       C  0.93828866  0.96841964  0.80925643     0.84000
O2842       O  0.79310049  0.88537706  0.78135634    -0.68100
O2843       O  0.87845995  0.97300959  0.88000965    -0.87400
C2844       C  0.81567286  0.91741460  0.77682929     0.84800
C2845       C  0.84137343  0.85426021  0.78195228     1.06400
H2846       H  0.86375156  0.96528971  0.82655484     0.38200
O2847       O  0.86617077  0.94656127  0.83455405    -1.10100
O2848       O  0.84017961  0.89611187  0.87510889    -0.66700
Ni2849     Ni  0.82176378  0.91308893  0.84898116     1.26300
O2850       O  0.84349664  0.93363056  0.78893365    -0.67000
O2851       O  0.82154045  0.94542858  0.87075110    -0.79200
C2852       C  0.74999924  0.86591822  0.84575378     0.84200
O2853       O  0.77505258  0.87861262  0.86069778    -0.66400
Ni2854     Ni  0.90537965  0.96794445  0.85504991     1.27400
Ni2855     Ni  0.86680298  0.91678662  0.81071045     1.26100
H2856       H  0.83058128  0.86677955  0.83652419     0.38700
C2857       C  0.83440500  0.77589218  0.70062354     0.79900
N2858       N  0.81896599  0.77835967  0.67955003    -0.78400
C2859       C  0.81942982  0.76085230  0.66005854     0.82300
N2860       N  0.83673560  0.74269708  0.66170107    -0.78400
C2861       C  0.85306930  0.74093201  0.68211458     0.82400
N2862       N  0.85160454  0.75756034  0.70155931    -0.80100
C2863       C  0.78634357  0.49898840  0.65269153     0.79900
N2864       N  0.78764608  0.98489953  0.67415584    -0.78400
C2865       C  0.79000673  0.99335282  0.69783002     0.82300
N2866       N  0.78849474  0.51336263  0.69998134    -0.78400
C2867       C  0.78611249  0.53509921  0.68278004     0.82400
N2868       N  0.78482563  0.52738838  0.65923774    -0.80100
C2869       C  0.84861261  0.87727148  0.02220740     0.79900
N2870       N  0.81423846  0.86810631  0.02284323    -0.78400
C2871       C  0.79616421  0.86351550  0.00202802     0.82300
N2872       N  0.81267211  0.86714813  0.98072430    -0.78400
C2873       C  0.84634970  0.87492679  0.97967299     0.82400
N2874       N  0.86469947  0.88036408  0.00048071    -0.80100
O2875       O  0.59453793  0.78367293  0.50230321    -0.81200
O2876       O  0.93227059  0.71792951  0.52660958    -0.65900
O2877       O  0.52263930  0.73447989  0.50437714    -1.12500
C2878       C  0.49366324  0.78164197  0.43415865     1.05700
O2879       O  0.91041121  0.69718147  0.49104072    -0.79100
O2880       O  0.95513074  0.69998713  0.45729654    -0.66700
Ni2881     Ni  0.56044221  0.75488121  0.52689754     1.34900
C2882       C  0.98464322  0.70830886  0.44813126     0.84400
O2883       O  0.97770315  0.69911388  0.54318207    -0.79700
O2884       O  0.53247705  0.72840910  0.55522846    -0.89900
C2885       C  0.90619269  0.70009957  0.51332484     0.84000
O2886       O  0.55221141  0.79223795  0.53288807    -0.68100
O2887       O  0.96740545  0.76434054  0.43989229    -0.87400
C2888       C  0.52427887  0.78735709  0.54294530     0.84800
C2889       C  0.00030785  0.70843256  0.55967175     1.06400
H2890       H  0.97782358  0.77670093  0.49400346     0.38200
O2891       O  0.97867698  0.75649863  0.48882865    -1.10100
O2892       O  0.50889200  0.72458725  0.45513842    -0.66700
Ni2893     Ni  0.52255347  0.76305406  0.47621761     1.26300
O2894       O  0.99803214  0.76872175  0.53760243    -0.67000
O2895       O  0.51956229  0.78936531  0.44821307    -0.79200
C2896       C  0.59665615  0.78997139  0.47948665     0.84200
O2897       O  0.57002809  0.77889064  0.46601173    -0.66400
Ni2898     Ni  0.94122970  0.73222389  0.46685825     1.27400
Ni2899     Ni  0.97853080  0.72872067  0.51641305     1.26100
H2900       H  0.52138223  0.71334920  0.49906091     0.38700
O2901       O  0.87942614  0.74761980  0.16626032    -0.81200
O2902       O  0.95728755  0.90861974  0.19170687    -0.65900
O2903       O  0.89516641  0.81743554  0.16836988    -1.12500
C2904       C  0.98943812  0.85424997  0.11073638     1.05700
O2905       O  0.96465475  0.93043898  0.15396384    -0.79100
O2906       O  0.95025227  0.89664686  0.11263120    -0.66700
Ni2907     Ni  0.87689565  0.77680149  0.19006430     1.34900
C2908       C  0.91983732  0.87132729  0.10896288     0.84400
O2909       O  0.89263630  0.85720050  0.20516887    -0.77300
O2910       O  0.87076120  0.80042586  0.21621771    -0.89900
C2911       C  0.96738115  0.93482063  0.17655631     0.84000
O2912       O  0.92118055  0.78665985  0.20283543    -0.68100
O2913       O  0.00347432  0.88391900  0.12019902    -0.87400
C2914       C  0.94388667  0.81519014  0.21165702     0.84800
C2915       C  0.87661477  0.83102394  0.22034054     1.06400
H2916       H  0.97531313  0.86005457  0.16552157     0.38200
O2917       O  0.95790892  0.86397169  0.15742756    -1.10100
O2918       O  0.90616245  0.84250989  0.12168463    -0.66700
Ni2919     Ni  0.92641865  0.82156876  0.14278143     1.26300
O2920       O  0.94663541  0.84479663  0.20546459    -0.67000
O2921       O  0.95921869  0.82832312  0.11701909    -0.79200
C2922       C  0.87791485  0.74844724  0.14318101     0.84200
O2923       O  0.89296106  0.77713099  0.13018867    -0.66400
Ni2924     Ni  0.98335217  0.90582926  0.13770485     1.27400
Ni2925     Ni  0.92584908  0.86192449  0.18126344     1.26100
H2926       H  0.87537552  0.81833464  0.16144199     0.38700
C2927       C  0.88150051  0.86414089  0.31912996     0.79900
N2928       N  0.86511240  0.84342486  0.33938591    -0.78400
C2929       C  0.87387446  0.85721830  0.36161943     0.82300
N2930       N  0.89759383  0.89174821  0.36335780    -0.78400
C2931       C  0.91377786  0.91252374  0.34319410     0.82400
N2932       N  0.90563598  0.89818312  0.32137824    -0.80100
C2933       C  0.52504269  0.80030258  0.33133210     0.79900
N2934       N  0.55720259  0.80629863  0.32493828    -0.78400
C2935       C  0.56687327  0.80856092  0.30137819     0.82300
N2936       N  0.54336145  0.80418140  0.28387594    -0.78400
C2937       C  0.51074567  0.79769301  0.28971577     0.82400
N2938       N  0.01874642  0.81570663  0.31563339    -0.80100
O2939       O  0.78283378  0.59786062  0.48787757    -0.81200
O2940       O  0.71047878  0.93368285  0.46194898    -0.65900
O2941       O  0.73767333  0.52540509  0.48558647    -1.12500
C2942       C  0.78416902  0.48851785  0.54997610     1.05700
O2943       O  0.68608663  0.90951815  0.49759973    -0.79100
O2944       O  0.68770799  0.95108363  0.53140687    -0.66700
Ni2945     Ni  0.75650294  0.56610807  0.46339880     1.34900
C2946       C  0.70522863  0.47997021  0.54190954     0.84400
O2947       O  0.69698053  0.98365015  0.44442235    -0.79700
O2948       O  0.73212616  0.54135121  0.43539298    -0.89900
C2949       C  0.69292124  0.90662059  0.47595135     0.84000
O2950       O  0.79492669  0.56019576  0.45503960    -0.68100
O2951       O  0.74890632  0.95861018  0.54846576    -0.87400
C2952       C  0.79055195  0.53364060  0.44413599     0.84800
C2953       C  0.70889673  0.00876785  0.42826918     1.06400
H2954       H  0.76690092  0.97456976  0.49416614     0.38200
O2955       O  0.74673754  0.97585382  0.49937330    -1.10100
O2956       O  0.73234876  0.50839502  0.53471515    -0.66700
Ni2957     Ni  0.76838571  0.52225031  0.51017290     1.26300
O2958       O  0.76280296  0.99689697  0.45029835    -0.67000
O2959       O  0.79573012  0.51514984  0.53483544    -0.79200
C2960       C  0.79298636  0.59714492  0.50940651     0.84200
O2961       O  0.78707317  0.56901298  0.52109265    -0.66400
Ni2962     Ni  0.71926880  0.93639583  0.52158416     1.27400
Ni2963     Ni  0.72229683  0.97967731  0.47168428     1.26100
H2964       H  0.71700338  0.52305666  0.49324381     0.38700
O2965       O  0.55326204  0.58066392  0.83229386    -0.81200
O2966       O  0.62286339  0.73655915  0.85267304    -0.65900
O2967       O  0.55621154  0.64587766  0.83198377    -1.12500
C2968       C  0.61823248  0.67527182  0.75933605     1.05700
O2969       O  0.63565634  0.76459262  0.81592045    -0.79100
O2970       O  0.58119556  0.72212086  0.78673766    -0.66700
Ni2971     Ni  0.53860789  0.60501263  0.85333145     1.34900
C2972       C  0.55660567  0.69317383  0.77963909     0.84400
O2973       O  0.56154907  0.68430367  0.87155713    -0.79700
O2974       O  0.52275099  0.62620545  0.87584509    -0.89900
C2975       C  0.63711325  0.76458020  0.83898718     0.84000
O2976       O  0.57800016  0.61780251  0.87380068    -0.68100
O2977       O  0.62437345  0.70600274  0.76329812    -0.87400
C2978       C  0.60551242  0.64689297  0.87691626     0.84800
C2979       C  0.53693374  0.65734768  0.88320134     1.06400
H2980       H  0.63666242  0.69339346  0.81909294     0.38200
O2981       O  0.61553929  0.69353863  0.81443105    -1.10100
O2982       O  0.55555759  0.66391902  0.78428035    -0.66700
Ni2983     Ni  0.58228890  0.64811897  0.80412259     1.26300
O2984       O  0.61518205  0.67379047  0.86241134    -0.67000
O2985       O  0.60920953  0.65161504  0.77631651    -0.79200
C2986       C  0.54471328  0.57590115  0.81010258     0.84200
O2987       O  0.54895551  0.60138640  0.79591012    -0.66400
Ni2988     Ni  0.62825054  0.73225870  0.79127040     1.27400
Ni2989     Ni  0.58913001  0.69028834  0.84305431     1.26100
H2990       H  0.53598390  0.64738919  0.82676779     0.38700
C2991       C  0.59429654  0.63671081  0.65929006     0.79900
N2992       N  0.57192305  0.60229753  0.65570780    -0.78400
C2993       C  0.56589278  0.58996707  0.63312512     0.82300
N2994       N  0.58304598  0.61261341  0.61398534    -0.78400
C2995       C  0.60529527  0.64707823  0.61697939     0.82400
N2996       N  0.61117693  0.65912230  0.63975250    -0.80100
C2997       C  0.94970113  0.67850258  0.65939615     0.79900
N2998       N  0.91459422  0.66378713  0.66265746    -0.78400
C2999       C  0.89984203  0.65703118  0.68516704     0.82300
N3000       N  0.92067833  0.66398057  0.70478840    -0.78400
C3001       C  0.95587647  0.67887340  0.70193388     0.82400
N3002       N  0.47582973  0.68328237  0.68048122    -0.80100
O3003       O  0.57633171  0.54958507  0.15096369    -0.81200
O3004       O  0.74072685  0.62466387  0.12756923    -0.65900
O3005       O  0.64614392  0.56157044  0.15168704    -1.12500
C3006       C  0.67133866  0.63254193  0.21677005     1.05700
O3007       O  0.76475294  0.64793239  0.16251047    -0.79100
O3008       O  0.72071642  0.59391533  0.19460755    -0.66700
Ni3009     Ni  0.60740340  0.54331041  0.13006659     1.34900
C3010       C  0.69195736  0.57034593  0.20447312     0.84400
O3011       O  0.69002622  0.56158926  0.11479221    -0.79700
O3012       O  0.63300360  0.53476089  0.10599332    -0.89900
C3013       C  0.76734721  0.64347317  0.14034728     0.84000
O3014       O  0.61956582  0.58663409  0.11345494    -0.68100
O3015       O  0.70189042  0.63784190  0.21298855    -0.87400
C3016       C  0.64917289  0.61051662  0.10528431     0.84800
C3017       C  0.66450240  0.54322911  0.10100434     1.06400
H3018       H  0.69224429  0.64343374  0.15496989     0.38200
O3019       O  0.69254186  0.62348835  0.16291617    -1.10100
O3020       O  0.66251273  0.56812929  0.19964308    -0.66700
Ni3021     Ni  0.64634755  0.59096451  0.17606971     1.26300
O3022       O  0.67826042  0.61564028  0.11391996    -0.67000
O3023       O  0.64805650  0.62111528  0.20053966    -0.79200
C3024       C  0.57264259  0.54608088  0.17388265     0.84200
O3025       O  0.59913323  0.55746251  0.18758082    -0.66400
Ni3026     Ni  0.72986941  0.64032567  0.18592316     1.27400
Ni3027     Ni  0.69256036  0.59294826  0.13881867     1.26100
H3028       H  0.64634088  0.54151064  0.15951532     0.38700
C3029       C  0.63866606  0.61444300  0.31910396     0.79900
N3030       N  0.60955073  0.58409692  0.32653143    -0.78400
C3031       C  0.59961697  0.57625289  0.35026811     0.82300
N3032       N  0.61952413  0.59944097  0.36669553    -0.78400
C3033       C  0.64867286  0.62998217  0.35993812     0.82400
N3034       N  0.65836144  0.63764539  0.33598008    -0.80100
C3035       C  0.68805107  0.97221995  0.32804462     0.79900
N3036       N  0.69864636  0.49884263  0.31081391    -0.78400
C3037       C  0.69973336  0.48977944  0.28777195     0.82300
N3038       N  0.68294903  0.95275929  0.28162944    -0.78400
C3039       C  0.67995657  0.92990826  0.30021640     0.82400
N3040       N  0.68230071  0.93984744  0.32337277    -0.80100
C3041       C  0.65441442  0.69038075  0.97166187     0.79900
N3042       N  0.66920338  0.72573136  0.97311613    -0.78400
C3043       C  0.67652549  0.74039406  0.99494960     0.82300
N3044       N  0.66941291  0.71942486  0.01526337    -0.78400
C3045       C  0.65517606  0.68442273  0.01445206     0.82400
N3046       N  0.64735772  0.66958551  0.99253227    -0.80100
O3047       O  0.65170682  0.88410328  0.81744496    -0.81200
O3048       O  0.56218461  0.95973050  0.79432415    -0.65900
O3049       O  0.62922633  0.93400803  0.81750846    -1.12500
C3050       C  0.55415272  0.87321531  0.88343434     1.05700
O3051       O  0.53340543  0.95186928  0.82922998    -0.79100
O3052       O  0.58395211  0.96254507  0.86126217    -0.66700
Ni3053     Ni  0.65076924  0.91858884  0.79500052     1.34900
C3054       C  0.60921624  0.96061581  0.87100275     0.84400
O3055       O  0.62702406  0.97973636  0.78091919    -0.79700
O3056       O  0.65315534  0.95078505  0.76920084    -0.89900
C3057       C  0.54129418  0.96401163  0.80747499     0.84000
O3058       O  0.60769608  0.88349792  0.78259693    -0.68100
O3059       O  0.54444801  0.89571281  0.87979225    -0.87400
C3060       C  0.58484758  0.88906179  0.77229415     0.84800
C3061       C  0.64300562  0.97289006  0.76490053     1.06400
H3062       H  0.54715942  0.88995454  0.82147554     0.38200
O3063       O  0.56465519  0.91033804  0.82933652    -1.10100
O3064       O  0.61662621  0.93690102  0.86607622    -0.66700
Ni3065     Ni  0.59956561  0.90040908  0.84243388     1.26300
O3066       O  0.57761436  0.91183650  0.77963430    -0.67000
O3067       O  0.56919928  0.86648270  0.86684819    -0.79200
C3068       C  0.64916821  0.87821008  0.84031274     0.84200
O3069       O  0.63474045  0.88987228  0.85385086    -0.66400
Ni3070     Ni  0.54128186  0.92312066  0.85249682     1.27400
Ni3071     Ni  0.59542337  0.94576456  0.80498491     1.26100
H3072       H  0.64767732  0.95431222  0.82488478     0.38700
C3073       C  0.51852716  0.80701051  0.64196745     0.79900
N3074       N  0.99913003  0.79077262  0.64655956    -0.78400
C3075       C  0.98837199  0.78017472  0.66982788     0.82300
N3076       N  0.49702439  0.78799249  0.68899727    -0.78400
C3077       C  0.52740349  0.81815055  0.68361443     0.82400
N3078       N  0.53835164  0.82812619  0.65987120    -0.80100
C3079       C  0.61821906  0.97856263  0.62300066     0.79900
N3080       N  0.59946558  0.47677236  0.62328713    -0.78400
C3081       C  0.58152827  0.48124708  0.64116556     0.82300
N3082       N  0.59546645  0.48791884  0.66359677    -0.78400
C3083       C  0.61383317  0.98680626  0.66446814     0.82400
N3084       N  0.63065548  0.98165295  0.64596530    -0.80100
C3085       C  0.07707150  0.85891014  0.98473831     0.79900
N3086       N  0.05865149  0.86068509  0.00370508    -0.78400
C3087       C  0.06893832  0.85910781  0.02695751     0.82300
N3088       N  0.09700673  0.85471042  0.03099003    -0.78400
C3089       C  0.11538280  0.85262768  0.01229660     0.82400
N3090       N  0.10528308  0.85524877  0.98937775    -0.80100
C3091       C  0.69343141  0.54786108  0.99968365     0.79900
N3092       N  0.72287184  0.57881251  0.99412651    -0.78400
C3093       C  0.73298521  0.59088448  0.97084084     0.82300
N3094       N  0.71307944  0.57118143  0.95273482    -0.78400
C3095       C  0.68357195  0.53993342  0.95765700     0.82400
N3096       N  0.67369332  0.52795818  0.98128902    -0.80100
C3097       C  0.97887341  0.51813972  0.18445868     0.79900
N3098       N  0.96197214  0.98623179  0.18268744    -0.78400
C3099       C  0.98232854  0.97104546  0.18401033     0.82300
N3100       N  0.51226255  0.98701218  0.18172989    -0.78400
C3101       C  0.53607282  0.52651378  0.18355736     0.82400
N3102       N  0.51575169  0.54198836  0.18273130    -0.80100
C3103       C  0.81853122  0.68675008  0.52518125     0.79900
N3104       N  0.85404153  0.70180494  0.52474386    -0.78400
C3105       C  0.86969888  0.68218384  0.52259188     0.82300
N3106       N  0.84922531  0.64713466  0.51961277    -0.78400
C3107       C  0.81364628  0.63147083  0.52016963     0.82400
N3108       N  0.79866600  0.65173743  0.52224337    -0.80100
C3109       C  0.69028664  0.82279865  0.47101331     0.79900
N3110       N  0.65511178  0.80047494  0.47114043    -0.78400
C3111       C  0.63231541  0.81277532  0.46955981     0.82300
N3112       N  0.64520237  0.84803566  0.46882925    -0.78400
C3113       C  0.68031421  0.87087932  0.46832409     0.82400
N3114       N  0.70259993  0.85795581  0.47029907    -0.80100
C3115       C  0.52548358  0.98487661  0.79866498     0.79900
N3116       N  0.99247375  0.97122362  0.79833543    -0.78400
C3117       C  0.97378868  0.98810995  0.79855997     0.82300
N3118       N  0.99239783  0.52057203  0.79995433    -0.78400
C3119       C  0.52905443  0.54023950  0.80145605     0.82400
N3120       N  0.54817052  0.52373048  0.80161057    -0.80100
C3121       C  0.66268502  0.85574286  0.85022288     0.79900
N3122       N  0.69794108  0.87007798  0.85207121    -0.78400
C3123       C  0.71293160  0.84956235  0.85319780     0.82300
N3124       N  0.69222149  0.81435637  0.85102287    -0.78400
C3125       C  0.65683447  0.79940346  0.84923585     0.82400
N3126       N  0.64251440  0.82053077  0.84809041    -0.80100
C3127       C  0.85675408  0.65938054  0.13073759     0.79900
N3128       N  0.82103075  0.64287519  0.13069054    -0.78400
C3129       C  0.80391091  0.66145638  0.13067869     0.82300
N3130       N  0.82330547  0.69695062  0.13238335    -0.78400
C3131       C  0.85900356  0.71402461  0.13228380     0.82400
N3132       N  0.87526160  0.69479525  0.13200417    -0.80100
C3133       C  0.62709313  0.98997627  0.68973653    -0.05800
C3134       C  0.64917341  0.97659885  0.69625918    -0.33200
C3135       C  0.65794596  0.97439187  0.72052982     0.36000
C3136       C  0.64465038  0.98584223  0.73909185    -0.06100
C3137       C  0.62557452  0.00254102  0.73217535    -0.33100
C3138       C  0.61696734  0.00484400  0.70783859     0.35900
H3139       H  0.65825135  0.96594274  0.68270896     0.16300
O3140       O  0.67813029  0.95930500  0.72592360    -0.60600
H3141       H  0.61830825  0.51147161  0.74883816     0.16300
O3142       O  0.60049547  0.51715806  0.70502686    -0.60700
H3143       H  0.61370314  0.54272222  0.70073997     0.43300
H3144       H  0.66225357  0.93371455  0.72473384     0.43300
C3145       C  0.56921533  0.87089576  0.74943671    -0.05800
C3146       C  0.58466506  0.85388167  0.73800366    -0.33200
C3147       C  0.57308769  0.83904672  0.71552146     0.36000
C3148       C  0.54541317  0.84063942  0.70390964    -0.06100
C3149       C  0.52996292  0.85768168  0.71500230    -0.33100
C3150       C  0.54199770  0.87328699  0.73728853     0.35900
H3151       H  0.60610918  0.85214855  0.74642169     0.16300
O3152       O  0.58778213  0.82137902  0.70568259    -0.60600
H3153       H  0.50785671  0.85817070  0.70658870     0.16300
O3154       O  0.52620185  0.88981485  0.74728397    -0.60700
H3155       H  0.53757988  0.91363995  0.73911916     0.43300
H3156       H  0.60580738  0.83859365  0.69393075     0.43300
C3157       C  0.62747370  0.98413315  0.89092108    -0.05800
C3158       C  0.63696480  0.97083790  0.91159809    -0.33200
C3159       C  0.64858639  0.98996423  0.93251019     0.36000
C3160       C  0.66487383  0.51873782  0.93686855    -0.06100
C3161       C  0.65721907  0.53491409  0.91695394    -0.33100
C3162       C  0.63040448  0.01750395  0.89140175     0.35900
H3163       H  0.63423643  0.94498310  0.91187288     0.16300
O3164       O  0.65790070  0.97629964  0.95226595    -0.60600
H3165       H  0.66244623  0.56160325  0.91782216     0.16300
O3166       O  0.63568098  0.53392212  0.87681567    -0.60700
H3167       H  0.61323281  0.53238803  0.88133398     0.43300
H3168       H  0.68350114  0.98601502  0.95035283     0.43300
C3169       C  0.55145221  0.85825235  0.90872860    -0.05800
C3170       C  0.53040237  0.86192639  0.92606230    -0.33200
C3171       C  0.53418669  0.85704806  0.95107088     0.36000
C3172       C  0.55985290  0.84896166  0.95926076    -0.06100
C3173       C  0.57833264  0.84190625  0.94182552    -0.33100
C3174       C  0.57446724  0.84656303  0.91692305     0.35900
H3175       H  0.51209721  0.87039411  0.92028328     0.16300
O3176       O  0.51411317  0.86235209  0.96719123    -0.60600
H3177       H  0.09821774  0.83703241  0.94692313     0.16300
O3178       O  0.59500593  0.84167240  0.90090722    -0.60700
H3179       H  0.61850208  0.86289257  0.90150550     0.43300
H3180       H  0.49256111  0.83919669  0.96978135     0.43300
C3181       C  0.67133046  0.53453832  0.07649970    -0.05800
C3182       C  0.64356032  0.51983825  0.05990232    -0.33200
C3183       C  0.64994054  0.52127588  0.03484587     0.36000
C3184       C  0.68450972  0.53706273  0.02587084    -0.06100
C3185       C  0.71190359  0.54802509  0.04264123    -0.33100
C3186       C  0.70562359  0.54677120  0.06764355     0.35900
H3187       H  0.61678317  0.50971132  0.06599353     0.16300
O3188       O  0.62240485  0.50991859  0.01923742    -0.60600
H3189       H  0.73875322  0.55962582  0.03619894     0.16300
O3190       O  0.73363439  0.56028846  0.08285813    -0.60700
H3191       H  0.73530151  0.53976645  0.08939621     0.43300
H3192       H  0.61853184  0.53012087  0.01624373     0.43300
C3193       C  0.65287640  0.66461463  0.03746878    -0.05800
C3194       C  0.67792021  0.68192486  0.05535290    -0.33200
C3195       C  0.67649242  0.66520762  0.07787198     0.36000
C3196       C  0.64948394  0.63068608  0.08303158    -0.06100
C3197       C  0.62420924  0.61339837  0.06528865    -0.33100
C3198       C  0.62603003  0.62996023  0.04251869     0.35900
H3199       H  0.69907821  0.70859491  0.05180053     0.16300
O3200       O  0.70176312  0.68275857  0.09457602    -0.60600
H3201       H  0.60357542  0.58646463  0.06877193     0.16300
O3202       O  0.60097018  0.61244953  0.02569951    -0.60700
H3203       H  0.60907119  0.59833194  0.01737086     0.43300
H3204       H  0.69160386  0.69296776  0.10519549     0.43300
C3205       C  0.69293295  0.54773579  0.22477858    -0.05800
C3206       C  0.67349020  0.54344895  0.24595031    -0.33200
C3207       C  0.67609773  0.52536831  0.26674467     0.36000
C3208       C  0.69822930  0.51089006  0.26655963    -0.06100
C3209       C  0.71710724  0.51448364  0.24519279    -0.33100
C3210       C  0.71492968  0.53316701  0.22447753     0.35900
H3211       H  0.65682496  0.55498904  0.24660873     0.16300
O3212       O  0.62646707  0.98657056  0.27470025    -0.60600
H3213       H  0.73390545  0.50310275  0.24467365     0.16300
O3214       O  0.73438904  0.53706791  0.20412991    -0.60700
H3215       H  0.71791886  0.51911681  0.19322697     0.43300
H3216       H  0.61258534  0.96438995  0.26643495     0.43300
C3217       C  0.64629258  0.62318131  0.29258704    -0.05800
C3218       C  0.68040564  0.64712192  0.28419445    -0.33200
C3219       C  0.68850320  0.65310303  0.25925077     0.36000
C3220       C  0.66220211  0.63513446  0.24207813    -0.06100
C3221       C  0.62768942  0.61356770  0.25040300    -0.33100
C3222       C  0.61964461  0.60718462  0.27527802     0.35900
H3223       H  0.70122269  0.66017029  0.29699541     0.16300
O3224       O  0.72263019  0.67519416  0.25197039    -0.60600
H3225       H  0.60703715  0.59951165  0.23768625     0.16300
O3226       O  0.58547762  0.58502015  0.28237403    -0.60700
H3227       H  0.58039024  0.56136484  0.27813898     0.43300
H3228       H  0.72426736  0.69820429  0.24807065     0.43300
C3229       C  0.54956242  0.55165180  0.63044613    -0.05800
C3230       C  0.53558879  0.52863881  0.65116860    -0.33200
C3231       C  0.53787216  0.49798535  0.65324530     0.36000
C3232       C  0.55497809  0.49132152  0.63466619    -0.06100
C3233       C  0.55859749  0.50827835  0.61169806    -0.33100
C3234       C  0.55642948  0.53881205  0.60949548     0.35900
H3235       H  0.52719973  0.53644671  0.66687112     0.16300
O3236       O  0.52717349  0.47686101  0.67428253    -0.60600
H3237       H  0.56930300  0.50197214  0.59645342     0.16300
O3238       O  0.56678674  0.55846824  0.58791301    -0.60700
H3239       H  0.54474676  0.55319111  0.57963188     0.43300
H3240       H  0.53879744  0.49234067  0.68779710     0.43300
C3241       C  0.53012490  0.69340028  0.76302273    -0.05800
C3242       C  0.49576981  0.66496534  0.76415976    -0.33200
C3243       C  0.96943554  0.65360834  0.73930395     0.36000
C3244       C  0.48334692  0.68411940  0.72485930    -0.06100
C3245       C  0.51714200  0.71352840  0.72429288    -0.33100
C3246       C  0.54041886  0.71837551  0.74318702     0.35900
H3247       H  0.48753488  0.64536278  0.77912538     0.16300
O3248       O  0.94067211  0.62152280  0.73567211    -0.60600
H3249       H  0.52596237  0.73220849  0.70873919     0.16300
O3250       O  0.57393918  0.74627124  0.74120222    -0.60700
H3251       H  0.58727608  0.73784476  0.73206674     0.43300
H3252       H  0.94858831  0.61056733  0.72392102     0.43300
C3253       C  0.60352800  0.64787479  0.68458607    -0.05800
C3254       C  0.59692723  0.62226698  0.70337656    -0.33200
C3255       C  0.60410643  0.63105636  0.72755375     0.36000
C3256       C  0.61771553  0.66614509  0.73367950    -0.06100
C3257       C  0.62585401  0.69203454  0.71475504    -0.33100
C3258       C  0.61910629  0.68322637  0.69045589     0.35900
H3259       H  0.58578770  0.59495715  0.69943196     0.16300
O3260       O  0.59587151  0.60465279  0.74507487    -0.60600
H3261       H  0.63628516  0.71920978  0.71880428     0.16300
O3262       O  0.62599612  0.70918721  0.67285787    -0.60700
H3263       H  0.65131017  0.71993318  0.66893435     0.43300
H3264       H  0.61759407  0.60340674  0.74722403     0.43300
C3265       C  0.62455206  0.65157057  0.90018183    -0.05800
C3266       C  0.65519036  0.68361225  0.90331315    -0.33200
C3267       C  0.66623922  0.69567939  0.92651053     0.36000
C3268       C  0.64701910  0.67529811  0.94734503    -0.06100
C3269       C  0.61915958  0.64121717  0.94438266    -0.33100
C3270       C  0.60803558  0.62916170  0.92107772     0.35900
H3271       H  0.66913517  0.70092508  0.88769135     0.16300
O3272       O  0.69549994  0.72792701  0.92854736    -0.60600
H3273       H  0.60450521  0.62464983  0.96009430     0.16300
O3274       O  0.57904576  0.59671830  0.91913642    -0.60700
H3275       H  0.58833672  0.58060996  0.91721088     0.43300
H3276       H  0.68955488  0.74499501  0.92060465     0.43300
C3277       C  0.67425060  0.98155646  0.55920075    -0.05800
C3278       C  0.70228104  0.50627178  0.58001650    -0.33200
C3279       C  0.68559575  0.50520931  0.60174230     0.36000
C3280       C  0.63837399  0.97804765  0.60217693    -0.06100
C3281       C  0.62112676  0.95411152  0.58423371    -0.33100
C3282       C  0.63887872  0.95542305  0.56299065     0.35900
H3283       H  0.72908119  0.52704340  0.57670115     0.16300
O3284       O  0.70271272  0.53155893  0.61737527    -0.60600
H3285       H  0.59379758  0.93426457  0.58676267     0.16300
O3286       O  0.62151818  0.93083837  0.54622864    -0.60700
H3287       H  0.61186863  0.94169077  0.53460491     0.43300
H3288       H  0.71728061  0.52457662  0.62741742     0.43300
C3289       C  0.69851518  0.00119462  0.40248370    -0.05800
C3290       C  0.67801905  0.46865486  0.39804552    -0.33200
C3291       C  0.67562165  0.45993417  0.37377457     0.36000
C3292       C  0.68968237  0.98214284  0.35349360    -0.06100
C3293       C  0.71135590  0.01713590  0.35912551    -0.33100
C3294       C  0.71605034  0.02678298  0.38323874     0.35900
H3295       H  0.66450231  0.44774198  0.41190598     0.16300
O3296       O  0.65474210  0.42561929  0.36826409    -0.60600
H3297       H  0.72610016  0.03694619  0.34485068     0.16300
O3298       O  0.73973686  0.06091346  0.38771150    -0.60700
H3299       H  0.72613446  0.07329541  0.38690504     0.43300
H3300       H  0.66749941  0.41344983  0.37404105     0.43300
C3301       C  0.66491533  0.89226908  0.29568657    -0.05800
C3302       C  0.64780763  0.88008044  0.27366609    -0.33200
C3303       C  0.61759635  0.84705193  0.27338180     0.36000
C3304       C  0.60486579  0.82659144  0.29537856    -0.06100
C3305       C  0.62814677  0.83447169  0.31479779    -0.33100
C3306       C  0.65819227  0.86747888  0.31512210     0.35900
H3307       H  0.65438883  0.89770575  0.25764500     0.16300
O3308       O  0.59847740  0.83728374  0.25254200    -0.60600
H3309       H  0.62028409  0.81772537  0.33133496     0.16300
O3310       O  0.67740854  0.87682641  0.33588846    -0.60700
H3311       H  0.69856418  0.87528624  0.33231482     0.43300
H3312       H  0.58869240  0.85317158  0.25006635     0.43300
C3313       C  0.00880667  0.85146815  0.09025038    -0.05800
C3314       C  0.99225084  0.84157463  0.06786886    -0.33200
C3315       C  0.01154138  0.84510555  0.04683323     0.36000
C3316       C  0.04788112  0.85775875  0.04816148    -0.06100
C3317       C  0.06415511  0.86696925  0.07077051    -0.33100
C3318       C  0.04506111  0.86442701  0.09156858     0.35900
H3319       H  0.96450650  0.83249473  0.06648237     0.16300
O3320       O  0.48515032  0.82745785  0.02449109    -0.60600
H3321       H  0.09198360  0.87662921  0.07234627     0.16300
O3322       O  0.06195017  0.87423089  0.11323035    -0.60700
H3323       H  0.07419217  0.90023227  0.11229260     0.43300
H3324       H  0.48510686  0.84893613  0.01814712     0.43300
C3325       C  0.86823144  0.83657226  0.24508192    -0.05800
C3326       C  0.86115230  0.81059827  0.26382470    -0.33200
C3327       C  0.86319560  0.81826885  0.28828214     0.36000
C3328       C  0.87169127  0.85208756  0.29431974    -0.06100
C3329       C  0.87495612  0.87676232  0.27568903    -0.33100
C3330       C  0.87336765  0.86933801  0.25130409     0.35900
H3331       H  0.85684391  0.78502514  0.25966412     0.16300
O3332       O  0.85955640  0.79343354  0.30592688    -0.60600
H3333       H  0.88060141  0.90275440  0.27999324     0.16300
O3334       O  0.87944572  0.89524873  0.23384874    -0.60700
H3335       H  0.85593629  0.89133326  0.22944807     0.43300
H3336       H  0.88327018  0.79635458  0.30772172     0.43300
C3337       C  0.96683415  0.81426073  0.23111197    -0.05800
C3338       C  0.00072105  0.84295131  0.23287790    -0.33200
C3339       C  0.46926548  0.81593592  0.27146688     0.36000
C3340       C  0.00850510  0.81838743  0.27151513    -0.06100
C3341       C  0.97455473  0.78973868  0.26992784    -0.33100
C3342       C  0.95384863  0.78734136  0.24978231     0.35900
H3343       H  0.43814352  0.83439333  0.25275266     0.16300
O3344       O  0.46994379  0.83206668  0.29218084    -0.60600
H3345       H  0.96414925  0.76911590  0.28425742     0.16300
O3346       O  0.92022667  0.75973182  0.24928346    -0.60700
H3347       H  0.92224036  0.74061422  0.24219183     0.43300
H3348       H  0.45056280  0.81375635  0.30258120     0.43300
C3349       C  0.51688080  0.80073938  0.35743396    -0.05800
C3350       C  0.48201787  0.78434509  0.36569361    -0.33200
C3351       C  0.47380719  0.78062846  0.39058481     0.36000
C3352       C  0.50080906  0.79396760  0.40795487    -0.06100
C3353       C  0.53564096  0.81307143  0.39939603    -0.33100
C3354       C  0.54379262  0.81650869  0.37458377     0.35900
H3355       H  0.97425105  0.78543505  0.35265284     0.16300
O3356       O  0.94749223  0.76904903  0.39621478    -0.60600
H3357       H  0.55699069  0.82375144  0.41206133     0.16300
O3358       O  0.57840876  0.83441263  0.36752946    -0.60700
H3359       H  0.58338724  0.85844159  0.36251624     0.43300
H3360       H  0.94304946  0.74494400  0.39418077     0.43300
C3361       C  0.98869018  0.69625981  0.58538606    -0.05800
C3362       C  0.51512463  0.70787761  0.60435099    -0.33200
C3363       C  0.50466731  0.70132072  0.62894502     0.36000
C3364       C  0.96431146  0.68400247  0.63434381    -0.06100
C3365       C  0.94195508  0.66495213  0.61569087    -0.33100
C3366       C  0.95372436  0.67086605  0.59151800     0.35900
H3367       H  0.54220595  0.72680340  0.59982837     0.16300
O3368       O  0.52892557  0.71884904  0.64621748    -0.60600
H3369       H  0.91483505  0.64559677  0.61971920     0.16300
O3370       O  0.93058046  0.65188146  0.57404672    -0.60700
H3371       H  0.91619450  0.66317980  0.57084689     0.43300
H3372       H  0.54038268  0.70469023  0.64987735     0.43300
C3373       C  0.52751166  0.80603374  0.56543309    -0.05800
C3374       C  0.06476734  0.82523434  0.57858567    -0.33200
C3375       C  0.06573065  0.83309132  0.60310430     0.36000
C3376       C  0.52602059  0.81625375  0.61562738    -0.06100
C3377       C  0.49796844  0.81120473  0.60060752    -0.33100
C3378       C  0.49837259  0.80578656  0.57581037     0.35900
H3379       H  0.08704248  0.82453248  0.57120745     0.16300
O3380       O  0.09438021  0.83947182  0.61668444    -0.60600
H3381       H  0.47420164  0.80815765  0.60860997     0.16300
O3382       O  0.46933836  0.79812616  0.56226350    -0.60700
H3383       H  0.45172560  0.77358796  0.56734671     0.43300
H3384       H  0.09009102  0.81603576  0.62278921     0.43300
C3385       C  0.75747146  0.84424908  0.00219787    -0.05800
C3386       C  0.74101910  0.83576073  0.97961300    -0.33200
C3387       C  0.71240341  0.80241206  0.97671584     0.36000
C3388       C  0.69804845  0.77878432  0.99713576    -0.06100
C3389       C  0.70877494  0.79160586  0.02040601    -0.33100
C3390       C  0.73852314  0.82419265  0.02307042     0.35900
H3391       H  0.75371432  0.85233160  0.96343304     0.16300
O3392       O  0.70054580  0.79248749  0.95378785    -0.60600
H3393       H  0.69657886  0.77498884  0.03664342     0.16300
O3394       O  0.75142061  0.83339246  0.04588295    -0.60700
H3395       H  0.74610012  0.85191995  0.04986976     0.43300
H3396       H  0.72041339  0.79334824  0.94491895     0.43300
C3397       C  0.86652353  0.87859341  0.04520242    -0.05800
C3398       C  0.84719432  0.85616416  0.06517028    -0.33200
C3399       C  0.86391839  0.85410007  0.08638702     0.36000
C3400       C  0.90052182  0.87519749  0.08805147    -0.06100
C3401       C  0.91951535  0.89892927  0.06850204    -0.33100
C3402       C  0.90283634  0.90064470  0.04722116     0.35900
H3403       H  0.81913118  0.83914306  0.06405372     0.16300
O3404       O  0.84421432  0.83160779  0.10539077    -0.60600
H3405       H  0.94767734  0.91546883  0.06932800     0.16300
O3406       O  0.92239536  0.92364263  0.02840145    -0.60700
H3407       H  0.92011343  0.94469575  0.03012576     0.43300
H3408       H  0.83985428  0.80816940  0.10123119     0.43300
C3409       C  0.79865338  0.57206039  0.68820105    -0.05800
C3410       C  0.80751973  0.59634378  0.66825606    -0.33200
C3411       C  0.83934604  0.62785407  0.66781019     0.36000
C3412       C  0.86127307  0.63571605  0.68811818    -0.06100
C3413       C  0.84683759  0.61651144  0.71022753    -0.33100
C3414       C  0.81524331  0.58455948  0.71041846     0.35900
H3415       H  0.79343186  0.58845829  0.65142295     0.16300
O3416       O  0.85088640  0.64783803  0.64639434    -0.60600
H3417       H  0.86191197  0.62357165  0.72669106     0.16300
O3418       O  0.80315062  0.56396110  0.73161028    -0.60700
H3419       H  0.82182292  0.55888874  0.73690641     0.43300
H3420       H  0.83365541  0.65557780  0.64264281     0.43300
C3421       C  0.79148136  0.49614519  0.62657917    -0.05800
C3422       C  0.80635292  0.52685682  0.61116927    -0.33200
C3423       C  0.80827780  0.52545466  0.58601778     0.36000
C3424       C  0.79536183  0.49282689  0.57566585    -0.06100
C3425       C  0.77227106  0.96434433  0.59568389    -0.33100
C3426       C  0.77422570  0.96806362  0.62087217     0.35900
H3427       H  0.81542651  0.55222755  0.61850764     0.16300
O3428       O  0.82058544  0.55592022  0.57173667    -0.60600
H3429       H  0.75865573  0.93807657  0.58925264     0.16300
O3430       O  0.75910751  0.93863326  0.63631230    -0.60700
H3431       H  0.77726235  0.93177439  0.63864223     0.43300
H3432       H  0.80114353  0.56114192  0.57113155     0.43300
C3433       C  0.88085341  0.73157056  0.68065002    -0.05800
C3434       C  0.90124629  0.73512748  0.70122253    -0.33200
C3435       C  0.93685726  0.74629435  0.69849398     0.36000
C3436       C  0.95166077  0.75278623  0.67494078    -0.06100
C3437       C  0.92921435  0.74032171  0.65518581    -0.33100
C3438       C  0.89401504  0.73016274  0.65777178     0.35900
H3439       H  0.89101388  0.73400429  0.71921192     0.16300
O3440       O  0.95733160  0.75342292  0.71869060    -0.60600
H3441       H  0.93953189  0.74261415  0.63702871     0.16300
O3442       O  0.87411367  0.72311588  0.63730533    -0.60700
H3443       H  0.88303374  0.74595705  0.62797112     0.43300
H3444       H  0.95713697  0.77345363  0.72587975     0.43300
C3445       C  0.84614608  0.83726060  0.76143555    -0.05800
C3446       C  0.84074206  0.80323829  0.76515835    -0.33200
C3447       C  0.83676086  0.78303217  0.74546552     0.36000
C3448       C  0.83697465  0.79639674  0.72157530    -0.06100
C3449       C  0.84255275  0.83057878  0.71784937    -0.33100
C3450       C  0.84744672  0.85111863  0.73759775     0.35900
H3451       H  0.83845008  0.79188646  0.78345413     0.16300
O3452       O  0.83064500  0.74946890  0.74982711    -0.60600
H3453       H  0.84325854  0.84143525  0.69961469     0.16300
O3454       O  0.85062832  0.88358230  0.73354922    -0.60700
H3455       H  0.87613094  0.90011608  0.73161307     0.43300
H3456       H  0.85390447  0.75203218  0.75333996     0.43300
C3457       C  0.79552467  0.97259937  0.71775622    -0.05800
C3458       C  0.81261767  0.98966595  0.73874952    -0.33200
C3459       C  0.81973103  0.97218734  0.75780613     0.36000
C3460       C  0.80911535  0.93654399  0.75654272    -0.06100
C3461       C  0.79181084  0.91910295  0.73573317    -0.33100
C3462       C  0.78524150  0.93692253  0.71632870     0.35900
H3463       H  0.83630628  0.51423609  0.72878148     0.16300
O3464       O  0.83591924  0.98994617  0.77800686    -0.60600
H3465       H  0.78371042  0.89166130  0.73438744     0.16300
O3466       O  0.76888284  0.91923601  0.69617076    -0.60700
H3467       H  0.74349688  0.90733812  0.70015206     0.43300
H3468       H  0.87711870  0.49751739  0.76052081     0.43300
C3469       C  0.87365421  0.88779355  0.90567437    -0.05800
C3470       C  0.84518384  0.85611768  0.91460955    -0.33200
C3471       C  0.83858156  0.84928280  0.93956706     0.36000
C3472       C  0.86061268  0.87447088  0.95582189    -0.06100
C3473       C  0.89220722  0.90308743  0.94718241    -0.33100
C3474       C  0.89912830  0.90967759  0.92212745     0.35900
H3475       H  0.82592442  0.83848961  0.90225884     0.16300
O3476       O  0.80897631  0.81926811  0.94788824    -0.60600
H3477       H  0.90959519  0.92237108  0.95952039     0.16300
O3478       O  0.92806193  0.94036973  0.91403255    -0.60700
H3479       H  0.94748744  0.93514683  0.91431420     0.43300
H3480       H  0.78904583  0.82260286  0.94303559     0.43300
C3481       C  0.67613727  0.71025502  0.55852227    -0.05800
C3482       C  0.66025054  0.72429656  0.57275442    -0.33200
C3483       C  0.63674380  0.70404119  0.59172957     0.36000
C3484       C  0.62800401  0.66892616  0.59626565    -0.06100
C3485       C  0.64234962  0.65436405  0.58121800    -0.33100
C3486       C  0.66640090  0.67474974  0.56263582     0.35900
H3487       H  0.66733711  0.75159136  0.56996901     0.16300
O3488       O  0.62216857  0.71862269  0.60550021    -0.60600
H3489       H  0.63591044  0.62730713  0.58446166     0.16300
O3490       O  0.68088849  0.65991538  0.54905502    -0.60700
H3491       H  0.66527197  0.65073279  0.53499056     0.43300
H3492       H  0.63970892  0.73115072  0.61802664     0.43300
C3493       C  0.69850156  0.69512996  0.41926928    -0.05800
C3494       C  0.71843476  0.69811949  0.39856253    -0.33200
C3495       C  0.70254121  0.67879010  0.37828799     0.36000
C3496       C  0.66623545  0.65562320  0.37872638    -0.06100
C3497       C  0.64611494  0.65480005  0.39872095    -0.33100
C3498       C  0.66196019  0.67450197  0.41881172     0.35900
H3499       H  0.74670766  0.71435513  0.39855964     0.16300
O3500       O  0.72304335  0.68050006  0.35918434    -0.60600
H3501       H  0.61795478  0.63772468  0.39923061     0.16300
O3502       O  0.64181679  0.67075753  0.43872617    -0.60700
H3503       H  0.63420050  0.68831483  0.43570511     0.43300
H3504       H  0.72543529  0.70023433  0.34824432     0.43300
C3505       C  0.79540756  0.78140171  0.58722725    -0.05800
C3506       C  0.79963800  0.75244676  0.59311086    -0.33200
C3507       C  0.80422093  0.74386319  0.61698562     0.36000
C3508       C  0.80686873  0.76561601  0.63576498    -0.06100
C3509       C  0.80124441  0.79395257  0.63011392    -0.33100
C3510       C  0.79497177  0.80155872  0.60607097     0.35900
H3511       H  0.79828353  0.73547558  0.57915193     0.16300
O3512       O  0.80627965  0.71404129  0.62160198    -0.60600
H3513       H  0.80259928  0.81077765  0.64416470     0.16300
O3514       O  0.78894509  0.82892074  0.60119905    -0.60700
H3515       H  0.81214514  0.84931968  0.59654630     0.43300
H3516       H  0.78181633  0.69503836  0.62487281     0.43300
C3517       C  0.81754492  0.80389268  0.42749156    -0.05800
C3518       C  0.85232916  0.81162609  0.42408679    -0.33200
C3519       C  0.87064097  0.82817032  0.40236610     0.36000
C3520       C  0.85416652  0.83689165  0.38354515    -0.06100
C3521       C  0.81960716  0.82939032  0.38676627    -0.33100
C3522       C  0.80123326  0.81299985  0.40850703     0.35900
H3523       H  0.86524419  0.80439014  0.43818885     0.16300
O3524       O  0.90460358  0.83563308  0.39964583    -0.60600
H3525       H  0.80693960  0.83658568  0.37244427     0.16300
O3526       O  0.76708615  0.80519544  0.41068942    -0.60700
H3527       H  0.75302016  0.78199958  0.40369124     0.43300
H3528       H  0.90301202  0.81513965  0.39187319     0.43300
C3529       C  0.81054905  0.10428797  0.96899824    -0.05800
C3530       C  0.82375604  0.63241790  0.98569183    -0.33200
C3531       C  0.79231351  0.63287259  0.98535886     0.36000
C3532       C  0.76977253  0.61856649  0.96567797    -0.06100
C3533       C  0.77111224  0.11395321  0.94293580    -0.33100
C3534       C  0.79774588  0.10557520  0.94555903     0.35900
H3535       H  0.83760828  0.63665989  0.00264706     0.16300
O3536       O  0.78072578  0.63975411  0.00617972    -0.60600
H3537       H  0.75766453  0.10940482  0.92579575     0.16300
O3538       O  0.80792542  0.09487504  0.92586333    -0.60700
H3539       H  0.78762183  0.07181864  0.92222010     0.43300
H3540       H  0.78438544  0.66374099  0.00313224     0.43300
C3541       C  0.84019468  0.97878489  0.90617359    -0.05800
C3542       C  0.81109749  0.98352858  0.90748024    -0.33200
C3543       C  0.80627476  0.99923642  0.92731934     0.36000
C3544       C  0.83049051  0.01006382  0.94634758    -0.06100
C3545       C  0.85814881  0.00320198  0.94591956    -0.33100
C3546       C  0.86337866  0.98804061  0.92597562     0.35900
H3547       H  0.79267635  0.97611071  0.89276412     0.16300
O3548       O  0.77810316  0.00442442  0.92776813    -0.60600
H3549       H  0.87830524  0.50469635  0.96041659     0.16300
O3550       O  0.89113389  0.98214107  0.92616962    -0.60700
H3551       H  0.90905479  0.48609452  0.92554541     0.43300
H3552       H  0.75968300  0.98378557  0.93730723     0.43300
C3553       C  0.13631963  0.83493435  0.01619544    -0.05800
C3554       C  0.64383897  0.82278973  0.99731350    -0.33200
C3555       C  0.63188566  0.78734427  0.99401564     0.36000
C3556       C  0.61535755  0.76259118  0.01364731    -0.06100
C3557       C  0.11850456  0.77781253  0.03555921    -0.33100
C3558       C  0.12983604  0.81346196  0.03757123     0.35900
H3559       H  0.65294516  0.84094985  0.98147576     0.16300
O3560       O  0.63378245  0.77678262  0.97138232    -0.60600
H3561       H  0.10894494  0.76038906  0.05173105     0.16300
O3562       O  0.12926211  0.82571603  0.05981940    -0.60700
H3563       H  0.10441095  0.81300072  0.06538048     0.43300
H3564       H  0.62476584  0.78829631  0.95980803     0.43300
C3565       C  0.52770949  0.66229771  0.90793036    -0.05800
C3566       C  0.53941821  0.69652397  0.91479536    -0.33200
C3567       C  0.54349652  0.70424363  0.93928884     0.36000
C3568       C  0.53558247  0.67741211  0.95744813    -0.06100
C3569       C  0.51911158  0.64253634  0.95083882    -0.33100
C3570       C  0.51503981  0.63477656  0.92625713     0.35900
H3571       H  0.54790562  0.71792526  0.90111569     0.16300
O3572       O  0.55548515  0.73813559  0.94537530    -0.60600
H3573       H  0.51162747  0.62141559  0.96462171     0.16300
O3574       O  0.50059346  0.60046489  0.92043723    -0.60700
H3575       H  0.51846018  0.59372647  0.92454999     0.43300
H3576       H  0.57816898  0.75257919  0.93658250     0.43300
C3577       C  0.91856599  0.00789067  0.33855263    -0.05800
C3578       C  0.92147944  0.99490358  0.36181897    -0.33200
C3579       C  0.92778944  0.96682193  0.36438335     0.36000
C3580       C  0.93010108  0.95111261  0.34347191    -0.06100
C3581       C  0.93625146  0.96992884  0.32092535    -0.33100
C3582       C  0.92975410  0.99772389  0.31820801     0.35900
H3583       H  0.91530429  0.00388418  0.37792526     0.16300
O3584       O  0.92675551  0.95212493  0.38713487    -0.60600
H3585       H  0.94088162  0.96003953  0.30465337     0.16300
O3586       O  0.93044715  0.01169699  0.29520818    -0.60700
H3587       H  0.95229585  0.03474199  0.29407711     0.43300
H3588       H  0.95145161  0.96392146  0.39238012     0.43300
C3589       C  0.83925990  0.55360458  0.37366936    -0.05800
C3590       C  0.85766297  0.57586277  0.39231206    -0.33200
C3591       C  0.84283207  0.56950165  0.41574247     0.36000
C3592       C  0.80980128  0.53963436  0.42095870    -0.06100
C3593       C  0.79165128  0.51758645  0.40211538    -0.33100
C3594       C  0.80582255  0.52466763  0.37865771     0.35900
H3595       H  0.88384770  0.59778302  0.38879039     0.16300
O3596       O  0.86078360  0.59244586  0.43333377    -0.60600
H3597       H  0.76115889  0.98780112  0.40503270     0.16300
O3598       O  0.78387217  0.99021209  0.36139287    -0.60700
H3599       H  0.77215628  0.00187696  0.35288924     0.43300
H3600       H  0.87865119  0.58643544  0.43905488     0.43300
C3601       C  0.56250331  0.55088146  0.35678383    -0.05800
C3602       C  0.54962873  0.55513649  0.37880148    -0.33200
C3603       C  0.52042707  0.55968365  0.37858885     0.36000
C3604       C  0.50437267  0.55932109  0.35621967    -0.06100
C3605       C  0.51104257  0.54407226  0.33673689    -0.33100
C3606       C  0.53877450  0.53741697  0.33772772     0.35900
H3607       H  0.56568956  0.56191488  0.39482064     0.16300
O3608       O  0.51190047  0.57008165  0.39916094    -0.60600
H3609       H  0.49797863  0.54145190  0.31964159     0.16300
O3610       O  0.54685070  0.52564406  0.31767779    -0.60700
H3611       H  0.54346845  0.50227181  0.32295991     0.43300
H3612       H  0.49006680  0.54923579  0.40552463     0.43300
C3613       C  0.97913588  0.64849913  0.38731280    -0.05800
C3614       C  0.49954008  0.67983679  0.38517129    -0.33200
C3615       C  0.50310348  0.69787941  0.40612323     0.36000
C3616       C  0.98537553  0.68785955  0.42792832    -0.06100
C3617       C  0.96727333  0.65110932  0.43010432    -0.33100
C3618       C  0.96492146  0.63149587  0.41023711     0.35900
H3619       H  0.51696965  0.69354027  0.36975110     0.16300
O3620       O  0.52709605  0.73301861  0.40596930    -0.60600
H3621       H  0.95512122  0.63756720  0.44730795     0.16300
O3622       O  0.94784462  0.59559511  0.41323312    -0.60700
H3623       H  0.96468427  0.59004752  0.42158933     0.43300
H3624       H  0.54905675  0.73434831  0.41182840     0.43300
C3625       C  0.85183215  0.53386010  0.07925974    -0.05800
C3626       C  0.86372307  0.51870643  0.06273238    -0.33200
C3627       C  0.84997289  0.01930412  0.04163377     0.36000
C3628       C  0.84746123  0.54484575  0.02859065    -0.06100
C3629       C  0.83268005  0.55713929  0.04516885    -0.33100
C3630       C  0.83457293  0.55167046  0.07017641     0.35900
H3631       H  0.87734945  0.50516422  0.06920531     0.16300
O3632       O  0.86849437  0.01112823  0.02604745    -0.60600
H3633       H  0.82047933  0.57212745  0.03877525     0.16300
O3634       O  0.82166544  0.56612005  0.08554838    -0.60700
H3635       H  0.79856077  0.54647940  0.09124159     0.43300
H3636       H  0.89187423  0.03254621  0.02421702     0.43300
C3637       C  0.51588873  0.65551499  0.04605705    -0.05800
C3638       C  0.50604510  0.67352049  0.06149139    -0.33200
C3639       C  0.99906033  0.65404153  0.08878134     0.36000
C3640       C  0.97639565  0.61760629  0.08899673    -0.06100
C3641       C  0.97566272  0.59964804  0.06843468    -0.33100
C3642       C  0.99619829  0.61755155  0.04772043     0.35900
H3643       H  0.51425891  0.70089127  0.05728386     0.16300
O3644       O  0.00076289  0.67252020  0.10844037    -0.60600
H3645       H  0.95827870  0.57156901  0.06808778     0.16300
O3646       O  0.99457288  0.59894976  0.02814181    -0.60700
H3647       H  0.97310901  0.59483247  0.01947713     0.43300
H3648       H  0.49466584  0.68602584  0.10821439     0.43300
C3649       C  0.84282049  0.54301171  0.28478011    -0.05800
C3650       C  0.84093822  0.57069187  0.27266953    -0.33200
C3651       C  0.84281060  0.57429849  0.24722257     0.36000
C3652       C  0.84788714  0.55056140  0.23378840    -0.06100
C3653       C  0.84451402  0.52026889  0.24588008    -0.33100
C3654       C  0.84111088  0.51596829  0.27116212     0.35900
H3655       H  0.84208559  0.59158166  0.28282099     0.16300
O3656       O  0.84503130  0.60396674  0.23609368    -0.60600
H3657       H  0.84765396  0.50144528  0.23596192     0.16300
O3658       O  0.84907135  0.98044170  0.27730241    -0.60700
H3659       H  0.82517609  0.96115578  0.28180063     0.43300
H3660       H  0.82075227  0.59699967  0.23132501     0.43300
C3661       C  0.97579029  0.62627105  0.29876697    -0.05800
C3662       C  0.99398067  0.61877984  0.28137843    -0.33200
C3663       C  0.98664799  0.61865767  0.25659331     0.36000
C3664       C  0.96067848  0.62630062  0.24844648    -0.06100
C3665       C  0.94415365  0.63615168  0.26570786    -0.33100
C3666       C  0.95138890  0.63602502  0.29058114     0.35900
H3667       H  0.01326277  0.61159183  0.28711003     0.16300
O3668       O  0.00392299  0.60933189  0.24076885    -0.60600
H3669       H  0.92410594  0.64232703  0.26016998     0.16300
O3670       O  0.93315742  0.64376620  0.30672012    -0.60700
H3671       H  0.91205879  0.62101571  0.31138336     0.43300
H3672       H  0.02487269  0.63167677  0.23517409     0.43300
loop_ 
_geom_bond_atom_site_label_1 
_geom_bond_atom_site_label_2 
_geom_bond_distance 
_geom_bond_site_symmetry_2 
_ccdc_geom_bond_type 
O1           Ni7   1.927       .  S
O1           C22   1.272       .  A
O2          Ni25   1.930       .  S
O2           C11   1.273       .  A
O3           Ni7   1.904       .  S
O3          Ni25   1.915       .  S
O3          Ni19   1.926       .  S
O3           H26   0.966       .  S
C4           O21   1.280       .  A
C4           O13   1.277       .  A
C4          C871   1.484       .  S
O5          Ni24   1.921       .  S
O5           C11   1.269       .  A
O6          Ni24   1.907       .  S
O6            C8   1.268       .  A
Ni7          O10   1.935       .  S
Ni7          O12   1.901       .  S
C8           O18   1.275       .  A
C8          C886   1.484       .  S
O9          Ni25   1.925       .  S
O9           C15   1.278       .  A
O10          C15   1.276       .  A
C11         C343   1.468       .  S
O12          C14   1.267       .  A
O13         Ni24   1.918       .  S
C14          O20   1.280       .  A
C14         C898   1.485       .  S
C15         C910   1.499       .  S
H16          O17   0.966       .  S
O17         Ni25   1.916       .  S
O17         Ni19   1.896       .  S
O17         Ni24   1.901       .  S
O18         Ni19   1.934       .  S
Ni19         O23   1.918       .  S
Ni19         O21   1.927       .  S
O20         Ni25   1.948       .  S
C22          O23   1.270       .  A
C22         C373   1.468       .  S
C27         C859   1.486       .  S
C27          N32   1.370       .  A
C27        N1864   1.359       .  A
N28          C29   1.355       .  A
N28        C1863   1.357       .  A
C29         C850   1.480   1_655  S
C29          N30   1.354       .  A
N30        C1867   1.354       .  A
C31         C907   1.493       .  S
C31          N32   1.367       .  A
C31        N1866   1.352       .  A
C33         C835   1.470       .  S
C33          N34   1.369       .  A
C33         N956   1.358       .  A
N34          C35   1.363       .  A
C35         C895   1.479       .  S
C35          N36   1.350       .  A
N36         C955   1.348       .  A
C37         C823   1.476       .  S
C37          N38   1.352       .  A
C37         N954   1.349       .  A
N38         C951   1.355       .  A
C39         C814   1.478       .  S
C39          N40   1.363   1_556  A
C39          N44   1.355       .  A
N40          C41   1.365       .  A
C41         C883   1.481       .  S
C41          N42   1.356       .  A
N42          C43   1.353       .  A
C43         C802   1.479       .  S
C43          N44   1.354   1_554  A
C45        C1792   1.487       .  S
C45          N46   1.358   1_554  A
C45          N50   1.363   1_554  A
N46          C47   1.358       .  A
C47         C775   1.485       .  S
C47          N48   1.357       .  A
N48          C49   1.357       .  A
C49         C790   1.485       .  S
C49          N50   1.364       .  A
O51         Ni57   1.921       .  S
O51          C72   1.271       .  A
O52         Ni75   1.929       .  S
O52          C61   1.267       .  A
O53         Ni57   1.923       .  S
O53         Ni75   1.920       .  S
O53         Ni69   1.947       .  S
O53          H76   0.966       .  S
C54          O71   1.279       .  A
C54          O63   1.274       .  A
C54         C739   1.467       .  S
O55         Ni74   1.918       .  S
O55          C61   1.264       .  A
O56         Ni74   1.889       .  S
O56          C58   1.265       .  A
Ni57         O60   1.944       .  S
Ni57         O62   1.905       .  S
C58          O68   1.274       .  A
C58         C763   1.471       .  S
O59         Ni75   1.894       .  S
O59          C65   1.264       .  A
O60          C65   1.270       .  A
C61         C349   1.466       .  S
O62          C64   1.272       .  A
O63         Ni74   1.906       .  S
C64          O70   1.281       .  A
C64         C727   1.470       .  S
C65         C751   1.475       .  S
H66          O67   0.966       .  S
O67         Ni75   1.891       .  S
O67         Ni69   1.899       .  S
O67         Ni74   1.903       .  S
O68         Ni69   1.937       .  S
Ni69         O73   1.918       .  S
Ni69         O71   1.927       .  S
O70         Ni75   1.949       .  S
C72          O73   1.270       .  A
C72         C355   1.469       .  S
O77         Ni83   1.915       .  S
O77          C98   1.268       .  A
O78        Ni101   1.928       .  S
O78          C87   1.274       .  A
O79         Ni83   1.893       .  S
O79        Ni101   1.905       .  S
O79         Ni95   1.919       .  S
O79         H102   0.966       .  S
C80          O97   1.279       .  A
C80          O89   1.277       .  A
C80         C787   1.484       .  S
O81        Ni100   1.919       .  S
O81          C87   1.270       .  A
O82        Ni100   1.897       .  S
O82          C84   1.265       .  A
Ni83         O86   1.907       .  S
Ni83         O88   1.915       .  S
C84          O94   1.276       .  A
C84         C715   1.474       .  S
O85        Ni101   1.941       .  S
O85          C91   1.281       .  A
O86          C91   1.272       .  A
C87         C363   1.465       .  S
O88          C90   1.271       .  A
O89        Ni100   1.931       .  S
C90          O96   1.273       .  A
C90         C706   1.484       .  S
C91         C691   1.472       .  S
H92          O93   0.966       .  S
O93        Ni101   1.919       .  S
O93         Ni95   1.907       .  S
O93        Ni100   1.896       .  S
O94         Ni95   1.934       .  S
Ni95         O99   1.934       .  S
Ni95         O97   1.925       .  S
O96        Ni101   1.917       .  S
C98          O99   1.274       .  A
C98         C369   1.470       .  S
C103        C694   1.478       .  S
C103        N104   1.367       .  A
C103        N108   1.356       .  A
N104        C105   1.365       .  A
C105        C754   1.486       .  S
C105        N106   1.353       .  A
N106        C107   1.349       .  A
C107        C679   1.479       .  S
C107        N108   1.352       .  A
C109        C667   1.483       .  S
C109        N114   1.356       .  A
C109       N1028   1.360   1_545  A
N110        C111   1.365       .  A
N110       C1027   1.365       .  A
C111        C703   1.469       .  S
C111       N1030   1.355       .  A
N112        C113   1.352       .  A
N112       C1029   1.355   1_545  A
C113        C655   1.482       .  S
C113        N114   1.357       .  A
C115        C643   1.471       .  S
C115        N116   1.359       .  A
C115        N120   1.366   1_554  A
N116        C117   1.355   1_554  A
C117        C631   1.478       .  S
C117        N118   1.350       .  A
N118        C119   1.350       .  A
C119        C718   1.473       .  S
C119        N120   1.360       .  A
O121       Ni127   1.903       .  S
O121        C142   1.266       .  A
O122       Ni145   1.926       .  S
O122        C131   1.269       .  A
O123       Ni127   1.921       .  S
O123       Ni139   1.957       .  S
O123      Ni1981   1.924   1_455  S
O123        H146   0.967       .  S
C124        O141   1.284   1_655  A
C124       O1969   1.276       .  A
C124        C598   1.494       .  S
O125       Ni144   1.931       .  S
O125        C131   1.268       .  A
O126       Ni144   1.909       .  S
O126        C128   1.268       .  A
Ni127       O130   1.930       .  S
Ni127       O132   1.900       .  S
C128       O1974   1.278       .  A
C128        C862   1.490       .  S
O129       Ni145   1.902       .  S
O129        C135   1.265       .  A
O130       C1971   1.268       .  A
C131        C351   1.472       .  S
O132        C134   1.271       .  A
O133       Ni144   1.924       .  S
O133       C1960   1.275       .  A
C134       O1976   1.288   1_455  A
C134        C619   1.498       .  S
C135       O1966   1.272       .  A
C135        C607   1.493       .  S
H136        O137   0.968       .  S
O137       Ni145   1.897       .  S
O137       Ni144   1.918       .  S
O137      Ni1975   1.906       .  S
O138       Ni139   1.941       .  S
O138       C1964   1.274   1_455  A
Ni139       O143   1.928       .  S
Ni139       O141   1.928       .  S
Ni139      O1973   1.900   1_455  S
O140       Ni145   1.977       .  S
O140       C1970   1.289       .  A
C142        O143   1.272       .  A
C142        C357   1.466       .  S
Ni145      O1959   1.927       .  S
O147       Ni153   1.930       .  S
O147        C168   1.273       .  A
O148       Ni171   1.934       .  S
O148        C157   1.271       .  A
O149       Ni153   1.913       .  S
O149       Ni171   1.914       .  S
O149       Ni165   1.924       .  S
O149        H172   0.966       .  S
C150        O167   1.282       .  A
C150        O159   1.276       .  A
C150        C559   1.468       .  S
O151       Ni170   1.924       .  S
O151        C157   1.268       .  A
O152       Ni170   1.905       .  S
O152        C154   1.268       .  A
Ni153       O156   1.927       .  S
Ni153       O158   1.909       .  S
C154        O164   1.273       .  A
C154        C646   1.487       .  S
O155       Ni171   1.896       .  S
O155        C161   1.270       .  A
O156        C161   1.273       .  A
C157        C345   1.475       .  S
O158        C160   1.273       .  A
O159       Ni170   1.907       .  S
C160        O166   1.278       .  A
C160        C583   1.482       .  S
C161        C571   1.479       .  S
H162        O163   0.966       .  S
O163       Ni171   1.901       .  S
O163       Ni165   1.905       .  S
O163       Ni170   1.897       .  S
O164       Ni165   1.925       .  S
Ni165       O169   1.928       .  S
Ni165       O167   1.936       .  S
O166       Ni171   1.946       .  S
C168        O169   1.273       .  A
C168        C377   1.475       .  S
C173        C574   1.476       .  S
C173        N174   1.357       .  A
C173        N178   1.350       .  A
N174        C175   1.364       .  A
C175        C766   1.486       .  S
C175        N176   1.361       .  A
N176        C177   1.357       .  A
C177        C826   1.480       .  S
C177        N178   1.350       .  A
C179        C595   1.484       .  S
C179        N180   1.352       .  A
C179       N2020   1.363       .  A
N180        C181   1.354       .  A
C181        C550   1.486       .  S
C181        N182   1.359       .  A
N182        C183   1.362       .  A
C183       C2422   1.488   1_455  S
C183       N2020   1.366       .  A
N184       C2015   1.363       .  A
N184       C2019   1.364       .  A
O185       Ni191   1.913       .  S
O185        C206   1.267       .  A
O186       Ni209   1.923       .  S
O186        C195   1.266       .  A
O187       Ni191   1.928       .  S
O187       Ni203   1.947       .  S
O187      Ni1127   1.934   1_545  S
O187        H210   0.965       .  S
C188        O205   1.278   1_565  A
C188       O1115   1.275       .  A
C188        C670   1.488       .  S
O189       Ni208   1.924       .  S
O189        C195   1.266       .  A
O190       Ni208   1.905       .  S
O190       C1110   1.268       .  A
Ni191       O194   1.919       .  S
Ni191       O196   1.907       .  S
C192        O202   1.273   1_565  A
C192       O1108   1.267       .  A
C192       C1441   1.473       .  S
O193       Ni209   1.911       .  S
O193        C199   1.268       .  A
O194       C1117   1.267       .  A
C195        C359   1.466       .  S
O196        C198   1.272       .  A
O197       Ni208   1.917       .  S
O197       C1106   1.276       .  A
C198       O1122   1.278       .  A
C198        C838   1.478       .  S
C199       O1112   1.269       .  A
C199        C535   1.493       .  S
H200        O201   0.967       .  S
O201       Ni209   1.898       .  S
O201       Ni208   1.911       .  S
O201      Ni1121   1.900       .  S
O202       Ni203   1.934       .  S
Ni203       O207   1.929       .  S
Ni203       O205   1.920       .  S
Ni203      O1119   1.910   1_545  S
O204       Ni209   1.940       .  S
O204       C1116   1.281       .  A
C206        O207   1.270       .  A
C206        C353   1.473       .  S
Ni209      O1105   1.926       .  S
O211       Ni217   1.934       .  S
O211        C232   1.271       .  A
O212       Ni235   1.933       .  S
O212        C221   1.275       .  A
O213       Ni217   1.903       .  S
O213       Ni235   1.902       .  S
O213       Ni229   1.897       .  S
O213        H236   0.966       .  S
C214        O231   1.266       .  A
C214        O223   1.272       .  A
C214        C502   1.484       .  S
O215       Ni234   1.923       .  S
O215        C221   1.271       .  A
O216       Ni234   1.904       .  S
O216        C218   1.272       .  A
Ni217       O220   1.916       .  S
Ni217       O222   1.909       .  S
C218        O228   1.279       .  A
C218        C487   1.478       .  S
O219       Ni235   1.933       .  S
O219        C225   1.285       .  A
O220        C225   1.277       .  A
C221        C371   1.476       .  S
O222        C224   1.270       .  A
O223       Ni234   1.931       .  S
C224        O230   1.273       .  A
C224        C511   1.486       .  S
C225        C811   1.489       .  S
H226        O227   0.966       .  S
O227       Ni235   1.936       .  S
O227       Ni229   1.918       .  S
O227       Ni234   1.920       .  S
O228       Ni229   1.944       .  S
Ni229       O233   1.926       .  S
Ni229       O231   1.900       .  S
O230       Ni235   1.922       .  S
C232        O233   1.267       .  A
C232        C365   1.477       .  S
C237        C499   1.483       .  S
C237        N238   1.356       .  A
C237        N242   1.356       .  A
N238        C239   1.358       .  A
C239        C475   1.486       .  S
C239        N240   1.359       .  A
N240        C241   1.357       .  A
C241        C730   1.471       .  S
C241        N242   1.358       .  A
C243        C610   1.489       .  S
C243        N244   1.357       .  A
C243       N2084   1.361       .  A
N244        C245   1.356       .  A
C245        C658   1.483       .  S
C245        N246   1.358       .  A
N246        C247   1.358       .  A
C247       C2326   1.477       .  S
C247       N2084   1.362       .  A
N248       C2079   1.362       .  A
N248       C2083   1.364       .  A
O249       Ni255   1.933       .  S
O249        C270   1.268       .  A
O250       Ni273   1.949       .  S
O250        C259   1.278       .  A
O251       Ni255   1.907       .  S
O251       Ni273   1.907       .  S
O251       Ni267   1.909       .  S
O251        H274   0.966       .  S
C252        O269   1.272       .  A
C252        O261   1.264       .  A
C252        C466   1.487       .  S
O253       Ni272   1.900       .  S
O253        C259   1.264       .  A
O254       Ni272   1.904       .  S
O254        C256   1.273       .  A
Ni255       O258   1.922       .  S
Ni255       O260   1.896       .  S
C256        O266   1.284       .  A
C256        C451   1.483       .  S
O257       Ni273   1.934       .  S
O257        C263   1.284       .  A
O258        C263   1.279       .  A
C259        C375   1.479       .  S
O260        C262   1.267       .  A
O261       Ni272   1.907       .  S
C262        O268   1.275       .  A
C262        C442   1.475       .  S
C263        C427   1.493       .  S
H264        O265   0.966       .  S
O265       Ni273   1.949       .  S
O265       Ni267   1.931       .  S
O265       Ni272   1.914       .  S
O266       Ni267   1.957       .  S
Ni267       O271   1.943       .  S
Ni267       O269   1.920       .  S
O268       Ni273   1.930       .  S
C270        O271   1.275       .  A
C270        C347   1.485       .  S
C275        C463   1.476       .  S
C275        N276   1.355       .  A
C275        N280   1.360       .  A
N276        C277   1.358       .  A
C277        C847   1.482       .  S
C277        N278   1.354       .  A
N278        C279   1.354       .  A
C279        C742   1.471       .  S
C279        N280   1.360       .  A
C281        C538   1.490       .  S
C281        N286   1.357       .  A
C281       N1200   1.362       .  A
N282        C283   1.366       .  A
N282       C1199   1.364   1_545  A
C283        C454   1.479       .  S
C283       N1202   1.358   1_545  A
N284        C285   1.358       .  A
N284       C1201   1.357       .  A
C285        C547   1.485       .  S
C285        N286   1.358       .  A
C287        C514   1.483       .  S
C287        N288   1.361       .  A
C287        N292   1.365       .  A
N288        C289   1.358       .  A
C289        C634   1.481       .  S
C289        N290   1.349   1_556  A
N290        C291   1.350       .  A
C291        C439   1.479       .  S
C291        N292   1.362   1_554  A
O293       Ni299   1.927       .  S
O293        C314   1.270       .  A
O294       Ni317   1.931       .  S
O294        C303   1.272       .  A
O295       Ni299   1.916       .  S
O295       Ni317   1.915       .  S
O295       Ni311   1.920       .  S
O295        H318   0.966       .  S
C296        O313   1.271       .  A
C296        O305   1.264       .  A
C296        C415   1.487       .  S
O297       Ni316   1.894       .  S
O297        C303   1.263       .  A
O298       Ni316   1.904       .  S
O298        C300   1.271       .  A
Ni299       O302   1.925       .  S
Ni299       O304   1.903       .  S
C300        O310   1.283       .  A
C300        C403   1.483       .  S
O301       Ni317   1.914       .  S
O301        C307   1.274       .  A
O302        C307   1.272       .  A
C303        C361   1.465       .  S
O304        C306   1.271       .  A
O305       Ni316   1.915       .  S
C306        O312   1.284       .  A
C306        C391   1.505       .  S
C307        C382   1.490       .  S
H308        O309   0.966       .  S
O309       Ni317   1.944       .  S
O309       Ni311   1.923       .  S
O309       Ni316   1.928       .  S
O310       Ni311   1.959       .  S
Ni311       O315   1.917       .  S
Ni311       O313   1.920       .  S
O312       Ni317   1.967       .  S
C314        O315   1.269       .  A
C314        C367   1.470       .  S
C319        C622   1.490       .  S
C319        N324   1.374       .  A
C319       N2156   1.351       .  A
N320        C321   1.348       .  A
N320       C2155   1.351       .  A
C321        C682   1.476       .  S
C321       N2158   1.348       .  A
N322        C323   1.353       .  A
N322       C2157   1.348   1_455  A
C323        C394   1.480       .  S
C323        N324   1.376       .  A
C325        C526   1.468       .  S
C325        N330   1.360       .  A
C325       N1244   1.353       .  A
N326        C327   1.353       .  A
N326       C1243   1.356       .  A
C327        C478   1.481   1_565  S
C327        N328   1.358       .  A
N328       C1247   1.359       .  A
C329        C379   1.492       .  S
C329        N330   1.362       .  A
C329       N1246   1.359       .  A
C331       C2254   1.487       .  S
C331        N332   1.362   1_556  A
C331        N336   1.354       .  A
N332        C333   1.363       .  A
C333        C562   1.480       .  S
C333        N334   1.357       .  A
N334        C335   1.353       .  A
C335        C799   1.483       .  S
C335        N336   1.356   1_554  A
C337        C430   1.486       .  S
C337        N338   1.355   1_554  A
C337        N342   1.364   1_554  A
N338        C339   1.355       .  A
C339        C778   1.485       .  S
C339        N340   1.357       .  A
N340        C341   1.357       .  A
C341        C406   1.482       .  S
C341        N342   1.368       .  A
C343       N1262   1.360   1_545  A
C343       N2184   1.362       .  A
N344        C345   1.361       .  A
N344       C1261   1.362       .  A
C345       N2182   1.359       .  A
N346       C2181   1.358   1_455  A
N346       C1265   1.357       .  A
C347        N348   1.369       .  A
C347       N1264   1.360   1_545  A
N348       C2179   1.368   1_455  A
C349        N350   1.360       .  A
C349        N354   1.359       .  A
N350        C351   1.359       .  A
C351        N352   1.363       .  A
N352        C353   1.361       .  A
C353        N354   1.360       .  A
C355        N356   1.359       .  A
C355        N360   1.358       .  A
N356        C357   1.361       .  A
C357        N358   1.360       .  A
N358        C359   1.359       .  A
C359        N360   1.359       .  A
C361       N2198   1.360   1_455  A
C361       N1284   1.363       .  A
N362        C363   1.358       .  A
N362       C2197   1.360       .  A
C363       N1282   1.360       .  A
N364       C1281   1.360   1_545  A
N364       C2201   1.358       .  A
C365        N366   1.360       .  A
C365       N2200   1.361   1_455  A
N366       C1279   1.361   1_545  A
C367        N368   1.360       .  A
C367        N372   1.363       .  A
N368        C369   1.359       .  A
C369        N370   1.361       .  A
N370        C371   1.360       .  A
C371        N372   1.361       .  A
C373        N374   1.364       .  A
C373        N378   1.358       .  A
N374        C375   1.363       .  A
C375        N376   1.365       .  A
N376        C377   1.362       .  A
C377        N378   1.356       .  A
C379        C380   1.404       .  A
C379        C384   1.415       .  A
C380        C381   1.402       .  A
C380        H385   1.083       .  S
C381        C382   1.416       .  A
C381        O386   1.373       .  S
C382        C383   1.405       .  A
C383        C384   1.401       .  A
C383       H1305   1.083       .  S
C384       O1306   1.370       .  S
O386        H390   0.992       .  S
H387       C1301   1.084       .  S
O388       C1302   1.371       .  S
O388        H389   0.992       .  S
C391        C392   1.412       .  A
C391        C396   1.417       .  A
C392        C393   1.405       .  A
C392        H397   1.083       .  S
C393        C394   1.406       .  A
C393        O398   1.372       .  S
C394        C395   1.405       .  A
C395        C396   1.410       .  A
C395        H399   1.084       .  S
C396        O400   1.371       .  S
O398        H402   0.992       .  S
O400        H401   0.991       .  S
C403        C404   1.407       .  A
C403        C408   1.410       .  A
C404        C405   1.403       .  A
C404        H409   1.084       .  S
C405       C1324   1.408       .  A
C405        O410   1.372       .  S
C406        C407   1.407       .  A
C406       C1323   1.409   1_545  A
C407       C1326   1.405       .  A
C407        H411   1.084       .  S
C408       C1325   1.403       .  A
C408       O1330   1.372       .  S
O410        H414   0.992       .  S
O412       C1326   1.372       .  S
O412        H413   0.992       .  S
C415        C416   1.412       .  A
C415        C420   1.406       .  A
C416        C417   1.405       .  A
C416        H421   1.084       .  S
C417        C418   1.410       .  A
C417        O422   1.371       .  S
C418       C2167   1.494       .  S
C418        C419   1.412       .  A
C419        C420   1.397       .  A
C419       H2259   1.083       .  S
C420        O424   1.372       .  S
O422        H426   0.992   1_455  S
H423       C2255   1.083       .  S
O424        H425   0.992       .  S
C427        C428   1.414       .  A
C427        C432   1.409       .  A
C428        C429   1.405       .  A
C428        H433   1.083       .  S
C429        C430   1.405       .  A
C429        O434   1.372       .  S
C430        C431   1.409       .  A
C431        C432   1.401       .  A
C431        H435   1.084       .  S
C432        O436   1.371       .  S
O434        H438   0.992       .  S
O436        H437   0.992       .  S
C439        C440   1.411       .  A
C439        C444   1.405       .  A
C440        C441   1.396       .  A
C440        H445   1.083       .  S
C441        C442   1.403       .  A
C441        O446   1.372       .  S
C442        C443   1.410       .  A
C443        C444   1.400       .  A
C443        H447   1.084       .  S
C444        O448   1.372       .  S
O446        H450   0.992       .  S
O448        H449   0.992       .  S
C451        C452   1.406       .  A
C451        C456   1.411       .  A
C452        C453   1.400       .  A
C452        H457   1.084       .  S
C453        C454   1.408       .  A
C453       O1376   1.372       .  S
C454        C455   1.406       .  A
C455        C456   1.404       .  A
C455        H459   1.084       .  S
C456        O460   1.372       .  S
O458       C1371   1.372       .  S
O458        H462   0.992       .  S
O460        H461   0.992       .  S
C463        C464   1.397       .  A
C463        C468   1.412       .  A
C464        C465   1.397       .  A
C464        H469   1.084       .  S
C465        C466   1.421       .  A
C465        O470   1.372       .  S
C466        C467   1.403       .  A
C467        C468   1.402       .  A
C467        H471   1.083       .  S
C468        O472   1.373       .  S
O470        H474   0.991       .  S
O472        H473   0.992       .  S
C475        C476   1.408       .  A
C475        C480   1.411       .  A
C476        C477   1.401       .  A
C476        H481   1.084       .  S
C477        C478   1.407       .  A
C477        O482   1.374   1_545  S
C478        C479   1.407       .  A
C479        C480   1.397       .  A
C479        H483   1.083       .  S
C480        O484   1.371       .  S
O482        H486   0.991   1_565  S
O484        H485   0.991       .  S
C487        C488   1.402       .  A
C487        C492   1.414       .  A
C488       C2325   1.398   1_455  A
C488        H493   1.084   1_455  S
C489       C2324   1.401       .  A
C489       C2326   1.410       .  A
C489        O494   1.372       .  S
C490       C2083   1.475       .  S
C490        C491   1.401   1_655  A
C490       C2325   1.411       .  A
C491        C492   1.402       .  A
C491        H495   1.084       .  S
C492        O496   1.372       .  S
O494        H498   0.992       .  S
O496        H497   0.992       .  S
C499        C500   1.406       .  A
C499        C504   1.409       .  A
C500        C501   1.397       .  A
C500        H505   1.084       .  S
C501        C502   1.412       .  A
C501        O506   1.372       .  S
C502        C503   1.408       .  A
C503        C504   1.399       .  A
C503        H507   1.083       .  S
C504        O508   1.371       .  S
O506        H510   0.992       .  S
O508        H509   0.992       .  S
C511        C512   1.404       .  A
C511        C516   1.416       .  A
C512        C513   1.403       .  A
C512        H517   1.084       .  S
C513        C514   1.411       .  A
C513        O518   1.373       .  S
C514        C515   1.401       .  A
C515        C516   1.401       .  A
C515        H519   1.084       .  S
C516        O520   1.371       .  S
O518        H522   0.992       .  S
O520        H521   0.991       .  S
C523       C1110   1.482       .  S
C523        C528   1.413       .  A
C523       C1442   1.408       .  A
C524        C525   1.399       .  A
C524       C1441   1.405       .  A
C524        H529   1.084   1_565  S
C525       C1444   1.410       .  A
C525        O530   1.372   1_565  S
C526        C527   1.402       .  A
C526       C1443   1.404       .  A
C527        C528   1.401       .  A
C527        H531   1.084       .  S
C528        O532   1.372       .  S
O530        H534   0.992       .  S
O532        H533   0.992       .  S
C535        C540   1.417       .  A
C535       C1454   1.405       .  A
C536        C537   1.399       .  A
C536       C1453   1.401   1_565  A
C536        H541   1.084       .  S
C537       C1456   1.417       .  A
C537        O542   1.372       .  S
C538        C539   1.403       .  A
C538       C1455   1.415       .  A
C539        C540   1.402       .  A
C539        H543   1.083       .  S
C540        O544   1.371       .  S
O542        H546   0.992       .  S
O544        H545   0.992       .  S
C547        C548   1.407       .  A
C547        C552   1.410       .  A
C548        C549   1.402       .  A
C548        H553   1.083       .  S
C549        C550   1.409       .  A
C549        O554   1.373       .  S
C550        C551   1.408       .  A
C551        C552   1.396       .  A
C551        H555   1.084       .  S
C552        O556   1.371       .  S
O554        H558   0.992       .  S
O556        H557   0.991       .  S
C559        C560   1.403       .  A
C559        C564   1.404       .  A
C560        C561   1.404       .  A
C560        H565   1.084       .  S
C561        C562   1.412       .  A
C561       O2402   1.371       .  S
C562        C563   1.405       .  A
C563        C564   1.395       .  A
C563        H567   1.084       .  S
C564        O568   1.373       .  S
O566       C2397   1.372       .  S
O566        H570   0.992       .  S
O568        H569   0.992       .  S
C571        C572   1.411       .  A
C571        C576   1.408       .  A
C572        C573   1.401       .  A
C572        H577   1.083       .  S
C573        C574   1.406       .  A
C573        O578   1.371       .  S
C574        C575   1.407       .  A
C575        C576   1.392       .  A
C575        H579   1.084       .  S
C576        O580   1.372       .  S
O578        H582   0.992       .  S
O580        H581   0.992       .  S
C583        C584   1.408       .  A
C583        C588   1.407       .  A
C584       C2421   1.403       .  A
C584       H2425   1.084       .  S
C585       C2420   1.406       .  A
C585       C2422   1.411       .  A
C585        O590   1.372       .  S
C586       C2019   1.481       .  S
C586        C587   1.407       .  A
C586       C2421   1.407       .  A
C587        C588   1.402       .  A
C587        H591   1.083       .  S
C588        O592   1.372       .  S
H589       C2420   1.084       .  S
O590        H594   0.992       .  S
O592        H593   0.992       .  S
C595        C596   1.397   1_455  A
C595        C600   1.415       .  A
C596        C597   1.402       .  A
C596       H2437   1.084       .  S
C597        C598   1.423       .  A
C597       O2438   1.372       .  S
C598        C599   1.404   1_655  A
C599        C600   1.401       .  A
C599        H603   1.083       .  S
C600        O604   1.372       .  S
H601       C2432   1.084       .  S
O602       C2433   1.372       .  S
O602        H606   0.992       .  S
O604        H605   0.992       .  S
C607        C612   1.413       .  A
C607       C2444   1.410       .  A
C608        C609   1.403       .  A
C608       C2443   1.411   1_455  A
C608        H613   1.083       .  S
C609       C2446   1.407   1_455  A
C609        O614   1.371       .  S
C610        C611   1.407       .  A
C610       C2445   1.410       .  A
C611        C612   1.400       .  A
C611        H615   1.083       .  S
C612        O616   1.372       .  S
O614        H618   0.992       .  S
O616        H617   0.992       .  S
C619        C624   1.407       .  A
C619       C2456   1.416       .  A
C620        C621   1.411       .  A
C620       C2455   1.417       .  A
C620        H625   1.083       .  S
C621       C2458   1.405       .  A
C621        O626   1.371       .  S
C622        C623   1.411       .  A
C622       C2457   1.404       .  A
C623        C624   1.405       .  A
C623        H627   1.084   1_455  S
C624        O628   1.372   1_455  S
O626        H630   0.992       .  S
O628        H629   0.992       .  S
C631        C632   1.407       .  A
C631        C636   1.407   1_556  A
C632        C633   1.397       .  A
C632        H637   1.084       .  S
C633        C634   1.408       .  A
C633        O638   1.372       .  S
C634        C635   1.409   1_556  A
C635        C636   1.393       .  A
C635        H639   1.083       .  S
C636        O640   1.371       .  S
O638        H642   0.991       .  S
O640        H641   0.991       .  S
C643        C644   1.403       .  A
C643        C648   1.402       .  A
C644        C645   1.399       .  A
C644        H649   1.084       .  S
C645        C646   1.412       .  A
C645        O650   1.372       .  S
C646        C647   1.412       .  A
C647        C648   1.399       .  A
C647        H651   1.083       .  S
C648        O652   1.372       .  S
O650        H654   0.992       .  S
O652        H653   0.992       .  S
C655        C656   1.401       .  A
C655        C660   1.411       .  A
C656        C657   1.396       .  A
C656        H661   1.084       .  S
C657        C658   1.413       .  A
C657        O662   1.371       .  S
C658        C659   1.405       .  A
C659        C660   1.402       .  A
C659        H663   1.083       .  S
C660        O664   1.374       .  S
O662        H666   0.992       .  S
O664        H665   0.992       .  S
C667        C668   1.408       .  A
C667       C1590   1.406   1_545  A
C668        C669   1.400       .  A
C668        H673   1.084       .  S
C669        C670   1.410   1_545  A
C669        O674   1.372       .  S
C670       C1589   1.412       .  A
C671        C672   1.404       .  A
C671       C1588   1.415       .  A
C671        H675   1.083       .  S
C672       C1585   1.405       .  A
C672        O676   1.371       .  S
O674        H678   0.992       .  S
O676        H677   0.992       .  S
C679        C680   1.406       .  A
C679        C684   1.413       .  A
C680        C681   1.398       .  A
C680        H685   1.083       .  S
C681        C682   1.410       .  A
C681        O686   1.373       .  S
C682        C683   1.403       .  A
C683        C684   1.390       .  A
C683        H687   1.084       .  S
C684        O688   1.373       .  S
O686        H690   0.992       .  S
O688        H689   0.993       .  S
C691        C692   1.406       .  A
C691        C696   1.405       .  A
C692        C693   1.403       .  A
C692        H697   1.084       .  S
C693        C694   1.408       .  A
C693        O698   1.371       .  S
C694        C695   1.407       .  A
C695        C696   1.399       .  A
C695        H699   1.084       .  S
C696        O700   1.372       .  S
O698        H702   0.992       .  S
O700        H701   0.992       .  S
C703        C704   1.403       .  A
C703        C708   1.402       .  A
C704        C705   1.393       .  A
C704       H1627   1.084       .  S
C705        C706   1.411       .  A
C705        O710   1.372       .  S
C706        C707   1.413       .  A
C707        C708   1.403       .  A
C707        H711   1.083       .  S
C708        O712   1.371       .  S
H709       C1622   1.083   1_545  S
O710       H1632   0.992       .  S
O712        H713   0.992       .  S
H714       O1628   0.992       .  S
C715        C716   1.399       .  A
C715        C720   1.416       .  A
C716        C717   1.395       .  A
C716        H721   1.084       .  S
C717        C718   1.412       .  A
C717        O722   1.374       .  S
C718        C719   1.399       .  A
C719        C720   1.401       .  A
C719        H723   1.084       .  S
C720        O724   1.371       .  S
O722        H726   0.992       .  S
O724        H725   0.992       .  S
C727        C728   1.402       .  A
C727        C732   1.407       .  A
C728        C729   1.394       .  A
C728        H733   1.084       .  S
C729        C730   1.409       .  A
C729        O734   1.372       .  S
C730        C731   1.404       .  A
C731        C732   1.403       .  A
C731        H735   1.084       .  S
C732        O736   1.371       .  S
O734        H738   0.992       .  S
O736        H737   0.992       .  S
C739        C740   1.406       .  A
C739        C744   1.402       .  A
C740        C741   1.394       .  A
C740        H745   1.084       .  S
C741        C742   1.403       .  A
C741        O746   1.372       .  S
C742        C743   1.410       .  A
C743        C744   1.400       .  A
C743        H747   1.084       .  S
C744        O748   1.371       .  S
O746        H750   0.992       .  S
O748        H749   0.992       .  S
C751        C752   1.399       .  A
C751        C756   1.409       .  A
C752        C753   1.390       .  A
C752        H757   1.084       .  S
C753        C754   1.415       .  A
C753        O758   1.372       .  S
C754        C755   1.408       .  A
C755        C756   1.409       .  A
C755        H759   1.083       .  S
C756        O760   1.371       .  S
O758        H762   0.992       .  S
O760        H761   0.992       .  S
C763        C764   1.403       .  A
C763        C768   1.402       .  A
C764        C765   1.396       .  A
C764        H769   1.084       .  S
C765        C766   1.411       .  A
C765        O770   1.372       .  S
C766        C767   1.412       .  A
C767        C768   1.402       .  A
C767        H771   1.083       .  S
C768        O772   1.372       .  S
O770        H774   0.992       .  S
O772        H773   0.992       .  S
C775        C780   1.413       .  A
C775       C1694   1.407       .  A
C776        C777   1.397       .  A
C776       C1693   1.408       .  A
C776        H781   1.084   1_556  S
C777        C778   1.410       .  A
C777        O782   1.371   1_556  S
C778       C1697   1.405       .  A
C779        C780   1.401       .  A
C779       C1696   1.404       .  A
C779        H783   1.084       .  S
C780        O784   1.373       .  S
O782        H786   0.991       .  S
O784        H785   0.992       .  S
C787        C788   1.401       .  A
C787        C792   1.414       .  A
C788        C789   1.404       .  A
C788        H793   1.083       .  S
C789        C790   1.416       .  A
C789        O794   1.371       .  S
C790        C791   1.400       .  A
C791        C792   1.400       .  A
C791       H1713   1.084       .  S
C792        O796   1.372       .  S
O794        H798   0.992       .  S
H795       C1709   1.084       .  S
O796       H1715   0.992       .  S
H797       O1714   0.992       .  S
C799        C804   1.410       .  A
C799       C2636   1.401   1_554  A
C800        C801   1.398       .  A
C800       C2635   1.404   1_556  A
C800        H805   1.084       .  S
C801        C802   1.410   1_556  A
C801        O806   1.374       .  S
C802       C2639   1.407       .  A
C803        C804   1.401       .  A
C803       C2638   1.407       .  A
C803        H807   1.083       .  S
C804        O808   1.374       .  S
O806        H810   0.991       .  S
O808        H809   0.993       .  S
C811        C812   1.403       .  A
C811        C816   1.420       .  A
C812        C813   1.404       .  A
C812        H817   1.084       .  S
C813        C814   1.411       .  A
C813        O818   1.375       .  S
C814        C815   1.398       .  A
C815        C816   1.400       .  A
C815        H819   1.084       .  S
C816        O820   1.371       .  S
O818        H822   0.991       .  S
O820        H821   0.992   1_455  S
C823        C824   1.407       .  A
C823        C828   1.410       .  A
C824        C825   1.397       .  A
C824        H829   1.083       .  S
C825        C826   1.409       .  A
C825        O830   1.371       .  S
C826        C827   1.406       .  A
C827        C828   1.391       .  A
C827        H831   1.083       .  S
C828        O832   1.373       .  S
O830        H834   0.992       .  S
O832        H833   0.990       .  S
C835        C836   1.405       .  A
C835        C840   1.404       .  A
C836        C837   1.404       .  A
C836        H841   1.082       .  S
C837        C838   1.408       .  A
C837        O842   1.371       .  S
C838        C839   1.408       .  A
C839        C840   1.395       .  A
C839       H1761   1.084   1_545  S
C840       O1762   1.372   1_545  S
O842        H846   0.992       .  S
H843       C1757   1.084       .  S
O844       C1758   1.372       .  S
O844        H845   0.992       .  S
C847        C848   1.407       .  A
C847        C852   1.404       .  A
C848        C849   1.399       .  A
C848        H853   1.084       .  S
C849        C850   1.413       .  A
C849        O854   1.371       .  S
C850        C851   1.408       .  A
C851        C852   1.392       .  A
C851        H855   1.080   1_455  S
C852        O856   1.371       .  S
O854        H858   0.992   1_455  S
O856        H857   0.991   1_545  S
C859        C864   1.411       .  A
C859       C2696   1.402       .  A
C860        C861   1.402   1_655  A
C860       C2695   1.402       .  A
C860        H865   1.084   1_655  S
C861       C2698   1.411   1_455  A
C861        O866   1.371       .  S
C862        C863   1.406       .  A
C862       C2697   1.414       .  A
C863        C864   1.408       .  A
C863        H867   1.083       .  S
C864        O868   1.372       .  S
O866        H870   0.992       .  S
O868        H869   0.992       .  S
C871        C872   1.410       .  A
C871        C876   1.408       .  A
C872       C1791   1.404       .  A
C872        H877   1.083   1_545  S
C873       C1790   1.403       .  A
C873       C1792   1.408       .  A
C873        O878   1.372       .  S
C874        C963   1.486       .  S
C874        C875   1.409       .  A
C874       C1791   1.408       .  A
C875        C876   1.397       .  A
C875        H879   1.084       .  S
C876        O880   1.372       .  S
O878        H882   0.992       .  S
O880        H881   0.992       .  S
C883        C884   1.411       .  A
C883       C2724   1.406   1_455  A
C884       C2721   1.399   1_455  A
C884        H889   1.083       .  S
C885        C886   1.406       .  A
C885       C2720   1.400       .  A
C885        O890   1.372       .  S
C886        C887   1.410       .  A
C887        C888   1.403       .  A
C887        H891   1.084       .  S
C888       C2719   1.407       .  A
C888        O892   1.372       .  S
O890       H2730   0.992       .  S
O892        H893   0.992       .  S
H894       O2726   0.992   1_455  S
C895        C896   1.399       .  A
C895        C900   1.413       .  A
C896        C897   1.405       .  A
C896        H901   1.083       .  S
C897        C898   1.419       .  A
C897        O902   1.371       .  S
C898        C899   1.401       .  A
C899        C900   1.396       .  A
C899        H903   1.084       .  S
C900       O1822   1.372   1_545  S
O902        H906   0.991       .  S
O904       C1818   1.372       .  S
O904        H905   0.992       .  S
C907        C908   1.412       .  A
C907        C912   1.406       .  A
C908        C909   1.403       .  A
C908        H913   1.084       .  S
C909        C910   1.411       .  A
C909        O914   1.372       .  S
C910        C911   1.414       .  A
C911        C912   1.405       .  A
C911        H915   1.083       .  S
C912        O916   1.371       .  S
O914        H918   0.992       .  S
O916        H917   0.992       .  S
O919       Ni925   1.924       .  S
O919        C940   1.270       .  A
O920       Ni943   1.946       .  S
O920        C929   1.277       .  A
O921       Ni925   1.912       .  S
O921       Ni943   1.925       .  S
O921       Ni937   1.924       .  S
O921        H944   0.966       .  S
C922        O939   1.273       .  A
C922        O931   1.276       .  A
C922       C1789   1.488       .  S
O923       Ni942   1.928       .  S
O923        C929   1.268       .  A
O924       Ni942   1.886       .  S
O924        C926   1.266       .  A
Ni925       O928   1.930       .  S
Ni925       O930   1.898       .  S
C926        O936   1.277       .  A
C926       C1804   1.481       .  S
O927       Ni943   1.923       .  S
O927        C933   1.277       .  A
O928        C933   1.274       .  A
C929       C1261   1.486       .  S
O930        C932   1.266       .  A
O931       Ni942   1.927       .  S
C932        O938   1.282       .  A
C932       C1816   1.483       .  S
C933       C1828   1.495       .  S
H934        O935   0.966       .  S
O935       Ni943   1.923       .  S
O935       Ni937   1.916       .  S
O935       Ni942   1.914       .  S
O936       Ni937   1.934       .  S
Ni937       O941   1.924       .  S
Ni937       O939   1.912       .  S
O938       Ni943   1.955       .  S
C940        O941   1.270       .  A
C940       C1291   1.473       .  S
C945       C1777   1.476       .  S
C945       N2782   1.355       .  A
C945        N950   1.368       .  A
N946       C2781   1.358       .  A
N946        C947   1.353       .  A
C947       C1768   1.479   1_655  S
C947        N948   1.351       .  A
N948       C2785   1.352       .  A
C949       C1825   1.492       .  S
C949       N2784   1.355       .  A
C949        N950   1.367       .  A
C951       C1753   1.464       .  S
C951        N952   1.368       .  A
N952        C953   1.363       .  A
C953       C1813   1.477       .  S
C953        N954   1.351       .  A
C955       C1741   1.477       .  S
C955        N956   1.353       .  A
C957       C1732   1.484       .  S
C957        N958   1.363   1_556  A
C957        N962   1.355       .  A
N958        C959   1.367       .  A
C959       C1801   1.485       .  S
C959        N960   1.357       .  A
N960        C961   1.354       .  A
C961       C1720   1.482       .  S
C961        N962   1.354   1_554  A
C963        N964   1.356       .  A
C963        N968   1.364   1_554  A
N964        C965   1.355   1_554  A
C965       C1693   1.482       .  S
C965        N966   1.354       .  A
N966        C967   1.357       .  A
C967       C1708   1.476       .  S
C967        N968   1.365       .  A
O969       Ni975   1.910       .  S
O969        C990   1.267       .  A
O970       Ni993   1.934       .  S
O970        C979   1.271       .  A
O971       Ni975   1.923       .  S
O971       Ni993   1.930       .  S
O971       Ni987   1.956       .  S
O971        H994   0.966       .  S
C972        O989   1.282       .  A
C972        O981   1.277       .  A
C972       C1657   1.471       .  S
O973       Ni992   1.922       .  S
O973        C979   1.266       .  A
O974       Ni992   1.899       .  S
O974        C976   1.264       .  A
Ni975       O978   1.926       .  S
Ni975       O980   1.897       .  S
C976        O986   1.274       .  A
C976       C1681   1.477       .  S
O977       Ni993   1.897       .  S
O977        C983   1.263       .  A
O978        C983   1.265       .  A
C979       C1267   1.473       .  S
O980        C982   1.274       .  A
O981       Ni992   1.917       .  S
C982        O988   1.286       .  A
C982       C1645   1.476       .  S
C983       C1669   1.469       .  S
H984        O985   0.967       .  S
O985       Ni993   1.880       .  S
O985       Ni987   1.897       .  S
O985       Ni992   1.900       .  S
O986       Ni987   1.941       .  S
Ni987       O991   1.935       .  S
Ni987       O989   1.921       .  S
O988       Ni993   1.960       .  S
C990        O991   1.273       .  A
C990       C1273   1.475       .  S
O995      Ni1001   1.910       .  S
O995       C1016   1.266       .  A
O996      Ni1019   1.926       .  S
O996       C1005   1.274       .  A
O997      Ni1001   1.892       .  S
O997      Ni1019   1.902       .  S
O997      Ni1013   1.909       .  S
O997       H1020   0.966       .  S
C998       O1015   1.275       .  A
C998       O1007   1.272       .  A
C998       C1705   1.482       .  S
O999      Ni1018   1.912       .  S
O999       C1005   1.269       .  A
O1000     Ni1018   1.902       .  S
O1000      C1002   1.268       .  A
Ni1001     O1004   1.899       .  S
Ni1001     O1006   1.911       .  S
C1002      O1012   1.278       .  A
C1002      C1633   1.473       .  S
O1003     Ni1019   1.933       .  S
O1003      C1009   1.279       .  A
O1004      C1009   1.271       .  A
C1005      C1281   1.465       .  S
O1006      C1008   1.270       .  A
O1007     Ni1018   1.925       .  S
C1008      O1014   1.272       .  A
C1008      C1624   1.480       .  S
C1009      C1609   1.465       .  S
H1010      O1011   0.966       .  S
O1011     Ni1019   1.927       .  S
O1011     Ni1013   1.915       .  S
O1011     Ni1018   1.901       .  S
O1012     Ni1013   1.935       .  S
Ni1013     O1017   1.933       .  S
Ni1013     O1015   1.921       .  S
O1014     Ni1019   1.913       .  S
C1016      O1017   1.273       .  A
C1016      C1287   1.468       .  S
C1021      C1612   1.472       .  S
C1021      N1022   1.367       .  A
C1021      N1026   1.352       .  A
N1022      C1023   1.365       .  A
C1023      C1672   1.481       .  S
C1023      N1024   1.355       .  A
N1024      C1025   1.350       .  A
C1025      C1597   1.477       .  S
C1025      N1026   1.349       .  A
C1027      C1585   1.486       .  S
C1027      N1032   1.356       .  A
N1028      C1029   1.360       .  A
C1029      C1621   1.466       .  S
N1030      C1031   1.350       .  A
C1031      C1573   1.483       .  S
C1031      N1032   1.355       .  A
C1033      C1561   1.479       .  S
C1033      N1034   1.360       .  A
C1033      N1038   1.365   1_554  A
N1034      C1035   1.355   1_554  A
C1035      C1549   1.481       .  S
C1035      N1036   1.351       .  A
N1036      C1037   1.350       .  A
C1037      C1636   1.473       .  S
C1037      N1038   1.359       .  A
O1039     Ni1045   1.921       .  S
O1039      C1060   1.270       .  A
O1040     Ni1063   1.936       .  S
O1040      C1049   1.270       .  A
O1041     Ni1045   1.926       .  S
O1041     Ni2899   1.928   1_455  S
O1041     Ni1057   1.950       .  S
O1041      H1064   0.967       .  S
C1042      O1059   1.280   1_655  A
C1042      O2887   1.276       .  A
C1042      C1516   1.494   1_655  S
O1043     Ni1062   1.924       .  S
O1043      C1049   1.264       .  A
O1044     Ni1062   1.898       .  S
O1044      C1046   1.266       .  A
Ni1045     O1048   1.935       .  S
Ni1045     O1050   1.902       .  S
C1046      O2892   1.276       .  A
C1046      C1780   1.481       .  S
O1047     Ni1063   1.908       .  S
O1047      C1053   1.270       .  A
O1048      C2889   1.270       .  A
C1049      C1269   1.474       .  S
O1050      C1052   1.273       .  A
O1051     Ni1062   1.922       .  S
O1051      C2878   1.276       .  A
C1052      O2894   1.290   1_455  A
C1052      C1537   1.501       .  S
C1053      O2884   1.271       .  A
C1053      C1525   1.491       .  S
H1054      O1055   0.968       .  S
O1055     Ni1063   1.906       .  S
O1055     Ni2893   1.907       .  S
O1055     Ni1062   1.915       .  S
O1056     Ni1057   1.950       .  S
O1056      C2882   1.275   1_455  A
Ni1057     O1061   1.925       .  S
Ni1057     O1059   1.920       .  S
Ni1057     O2891   1.906   1_455  S
O1058     Ni1063   1.960       .  S
O1058      C2888   1.283       .  A
C1060      O1061   1.270       .  A
C1060      C1275   1.475       .  S
Ni1063     O2877   1.928       .  S
O1065     Ni1071   1.929       .  S
O1065      C1086   1.275       .  A
O1066     Ni1089   1.924       .  S
O1066      C1075   1.270       .  A
O1067     Ni1071   1.907       .  S
O1067     Ni1089   1.911       .  S
O1067     Ni1083   1.930       .  S
O1067      H1090   0.966       .  S
C1068      O1085   1.281       .  A
C1068      O1077   1.276       .  A
C1068      C1477   1.474       .  S
O1069     Ni1088   1.921       .  S
O1069      C1075   1.269       .  A
O1070     Ni1088   1.910       .  S
O1070      C1072   1.269       .  A
Ni1071     O1074   1.938       .  S
Ni1071     O1076   1.916       .  S
C1072      O1082   1.273       .  A
C1072      C1564   1.482       .  S
O1073     Ni1089   1.909       .  S
O1073      C1079   1.272       .  A
O1074      C1079   1.276       .  A
C1075      C1263   1.465       .  S
O1076      C1078   1.273       .  A
O1077     Ni1088   1.912       .  S
C1078      O1084   1.277       .  A
C1078      C1501   1.478       .  S
C1079      C1489   1.487       .  S
H1080      O1081   0.966       .  S
O1081     Ni1089   1.908       .  S
O1081     Ni1083   1.896       .  S
O1081     Ni1088   1.893       .  S
O1082     Ni1083   1.926       .  S
Ni1083     O1087   1.918       .  S
Ni1083     O1085   1.939       .  S
O1084     Ni1089   1.945       .  S
C1086      O1087   1.271       .  A
C1086      C1295   1.468       .  S
C1091      C1492   1.483       .  S
C1091      N1092   1.360       .  A
C1091      N1096   1.353       .  A
N1092      C1093   1.362       .  A
C1093      C1684   1.467       .  S
C1093      N1094   1.356       .  A
N1094      C1095   1.356       .  A
C1095      C1744   1.482       .  S
C1095      N1096   1.356       .  A
C1097      C1513   1.491       .  S
C1097      N1098   1.358       .  A
C1097      N2938   1.365       .  A
N1098      C1099   1.357       .  A
C1099      C1468   1.485       .  S
C1099      N1100   1.354       .  A
N1100      C1101   1.356       .  A
C1101      C3340   1.477       .  S
C1101      N2938   1.364       .  A
N1102      C2933   1.364       .  A
N1102      C2937   1.366       .  A
O1103     Ni1109   1.920       .  S
O1103      C1124   1.270       .  A
O1104     Ni1127   1.935       .  S
O1104      C1113   1.270       .  A
O1105     Ni1109   1.925       .  S
O1105     Ni1121   1.956       .  S
O1105      H1128   0.965       .  S
C1106      O1123   1.283       .  A
C1106      C1588   1.492       .  S
O1107     Ni1126   1.923       .  S
O1107      C1113   1.265       .  A
O1108     Ni1126   1.904       .  S
Ni1109     O1112   1.932       .  S
Ni1109     O1114   1.905       .  S
C1110      O1120   1.273       .  A
O1111     Ni1127   1.918       .  S
O1111      C1117   1.272   1_565  A
C1113      C1277   1.474       .  S
O1114      C1116   1.274       .  A
O1115     Ni1126   1.919       .  S
C1116      C1756   1.484       .  S
C1117      C1453   1.489       .  S
H1118      O1119   0.967       .  S
O1119     Ni1127   1.904       .  S
O1119     Ni1126   1.917       .  S
O1120     Ni1121   1.926       .  S
Ni1121     O1125   1.932       .  S
Ni1121     O1123   1.930       .  S
O1122     Ni1127   1.936   1_545  S
C1124      O1125   1.273       .  A
C1124      C1271   1.479       .  S
O1129     Ni1135   1.945       .  S
O1129      C1150   1.275       .  A
O1130     Ni1153   1.936       .  S
O1130      C1139   1.277       .  A
O1131     Ni1135   1.907       .  S
O1131     Ni1153   1.898       .  S
O1131     Ni1147   1.900       .  S
O1131      H1154   0.966       .  S
C1132      O1149   1.269       .  A
C1132      O1141   1.274       .  A
C1132      C1420   1.486       .  S
O1133     Ni1152   1.931       .  S
O1133      C1139   1.273       .  A
O1134     Ni1152   1.903       .  S
O1134      C1136   1.270       .  A
Ni1135     O1138   1.924       .  S
Ni1135     O1140   1.917       .  S
C1136      O1146   1.278       .  A
C1136      C1405   1.483       .  S
O1137     Ni1153   1.932       .  S
O1137      C1143   1.286       .  A
O1138      C1143   1.280       .  A
C1139      C1289   1.482       .  S
O1140      C1142   1.271       .  A
O1141     Ni1152   1.942       .  S
C1142      O1148   1.276       .  A
C1142      C1429   1.498       .  S
C1143      C1729   1.490       .  S
H1144      O1145   0.966       .  S
O1145     Ni1153   1.934       .  S
O1145     Ni1147   1.917       .  S
O1145     Ni1152   1.920       .  S
O1146     Ni1147   1.945       .  S
Ni1147     O1151   1.916       .  S
Ni1147     O1149   1.904       .  S
O1148     Ni1153   1.928       .  S
C1150      O1151   1.266       .  A
C1150      C1283   1.476       .  S
C1155      C1417   1.494       .  S
C1155      N1156   1.357       .  A
C1155      N1160   1.362       .  A
N1156      C1157   1.356       .  A
C1157      C1393   1.484       .  S
C1157      N1158   1.356       .  A
N1158      C1159   1.356       .  A
C1159      C1648   1.481       .  S
C1159      N1160   1.364       .  A
C1161      C1528   1.489       .  S
C1161      N1162   1.350       .  A
C1161      N3002   1.361       .  A
N1162      C1163   1.350       .  A
C1163      C1576   1.482       .  S
C1163      N1164   1.359       .  A
N1164      C1165   1.364       .  A
C1165      C3244   1.482       .  S
C1165      N3002   1.367       .  A
N1166      C2997   1.360       .  A
N1166      C3001   1.361       .  A
O1167     Ni1173   1.938       .  S
O1167      C1188   1.271       .  A
O1168     Ni1191   1.940       .  S
O1168      C1177   1.277       .  A
O1169     Ni1173   1.905       .  S
O1169     Ni1191   1.908       .  S
O1169     Ni1185   1.914       .  S
O1169      H1192   0.966       .  S
C1170      O1187   1.275       .  A
C1170      O1179   1.276       .  A
C1170      C1384   1.487       .  S
O1171     Ni1190   1.918       .  S
O1171      C1177   1.268       .  A
O1172     Ni1190   1.901       .  S
O1172      C1174   1.265       .  A
Ni1173     O1176   1.923       .  S
Ni1173     O1178   1.907       .  S
C1174      O1184   1.276       .  A
C1174      C1369   1.480       .  S
O1175     Ni1191   1.929       .  S
O1175      C1181   1.282       .  A
O1176      C1181   1.279       .  A
C1177      C1293   1.474       .  S
O1178      C1180   1.269       .  A
O1179     Ni1190   1.931       .  S
C1180      O1186   1.280       .  A
C1180      C1360   1.489       .  S
C1181      C1345   1.486       .  S
H1182      O1183   0.966       .  S
O1183     Ni1191   1.922       .  S
O1183     Ni1185   1.914       .  S
O1183     Ni1190   1.909       .  S
O1184     Ni1185   1.946       .  S
Ni1185     O1189   1.925       .  S
Ni1185     O1187   1.909       .  S
O1186     Ni1191   1.945       .  S
C1188      O1189   1.269       .  A
C1188      C1265   1.476       .  S
C1193      C1381   1.481       .  S
C1193      N1194   1.359       .  A
C1193      N1198   1.361       .  A
N1194      C1195   1.359       .  A
C1195      C1765   1.483       .  S
C1195      N1196   1.351       .  A
N1196      C1197   1.351       .  A
C1197      C1660   1.470       .  S
C1197      N1198   1.359       .  A
C1199      C1456   1.490       .  S
C1199      N1204   1.353       .  A
N1200      C1201   1.363       .  A
C1201      C1372   1.478       .  S
N1202      C1203   1.357       .  A
C1203      C1465   1.483       .  S
C1203      N1204   1.354       .  A
C1205      C1432   1.501       .  S
C1205      N1206   1.360       .  A
C1205      N1210   1.370       .  A
N1206      C1207   1.356       .  A
C1207      C1552   1.485       .  S
C1207      N1208   1.352   1_556  A
N1208      C1209   1.354       .  A
C1209      C1357   1.498       .  S
C1209      N1210   1.370   1_554  A
O1211     Ni1217   1.936       .  S
O1211      C1232   1.272       .  A
O1212     Ni1235   1.923       .  S
O1212      C1221   1.272       .  A
O1213     Ni1217   1.908       .  S
O1213     Ni1235   1.902       .  S
O1213     Ni1229   1.915       .  S
O1213      H1236   0.966       .  S
C1214      O1231   1.272       .  A
C1214      O1223   1.272       .  A
C1214      C1333   1.485       .  S
O1215     Ni1234   1.914       .  S
O1215      C1221   1.269       .  A
O1216     Ni1234   1.904       .  S
O1216      C1218   1.269       .  A
Ni1217     O1220   1.929       .  S
Ni1217     O1222   1.901       .  S
C1218      O1228   1.281       .  A
C1218      C1321   1.482       .  S
O1219     Ni1235   1.908       .  S
O1219      C1225   1.276       .  A
O1220      C1225   1.278       .  A
C1221      C1279   1.465       .  S
O1222      C1224   1.268       .  A
O1223     Ni1234   1.924       .  S
C1224      O1230   1.281       .  A
C1224      C1309   1.487       .  S
C1225      C1300   1.489   1_565  S
H1226      O1227   0.966       .  S
O1227     Ni1235   1.923       .  S
O1227     Ni1229   1.912       .  S
O1227     Ni1234   1.909       .  S
O1228     Ni1229   1.961       .  S
Ni1229     O1233   1.920       .  S
Ni1229     O1231   1.910       .  S
O1230     Ni1235   1.944       .  S
C1232      O1233   1.270       .  A
C1232      C1285   1.473       .  S
C1237      C1540   1.487       .  S
C1237      N3074   1.352   1_455  A
C1237      N1242   1.374       .  A
N1238      C3073   1.351       .  A
N1238      C1239   1.350       .  A
C1239      C1600   1.477       .  S
C1239      N3076   1.353       .  A
N1240      C3075   1.347   1_455  A
N1240      C1241   1.355       .  A
C1241      C1312   1.490       .  S
C1241      N1242   1.376       .  A
C1243      C1444   1.480       .  S
C1243      N1248   1.364       .  A
N1244      C1245   1.355       .  A
C1245      C1396   1.480       .  S
C1245      N1246   1.360       .  A
C1247      C1297   1.493   1_565  S
C1247      N1248   1.363       .  A
C1249      C3172   1.494       .  S
C1249      N1250   1.365   1_556  A
C1249      N1254   1.353       .  A
N1250      C1251   1.368       .  A
C1251      C1480   1.490       .  S
C1251      N1252   1.359       .  A
N1252      C1253   1.354       .  A
C1253      C1717   1.484       .  S
C1253      N1254   1.353   1_554  A
C1255      C1348   1.483   1_556  S
C1255      N1256   1.354       .  A
C1255      N1260   1.364       .  A
N1256      C1257   1.355       .  A
C1257      C1696   1.484       .  S
C1257      N1258   1.357       .  A
N1258      C1259   1.357       .  A
C1259      C1324   1.479       .  S
C1259      N1260   1.367       .  A
C1261      N3102   1.370       .  A
N1262      C1263   1.359       .  A
C1263      N3100   1.358       .  A
N1264      C3099   1.360   1_455  A
C1265      N1266   1.363       .  A
N1266      C3097   1.366   1_455  A
C1267      N1268   1.361       .  A
C1267      N1272   1.362       .  A
N1268      C1269   1.360       .  A
C1269      N1270   1.363       .  A
N1270      C1271   1.361       .  A
C1271      N1272   1.363       .  A
C1273      N1274   1.362       .  A
C1273      N1278   1.362       .  A
N1274      C1275   1.362       .  A
C1275      N1276   1.361       .  A
N1276      C1277   1.361       .  A
C1277      N1278   1.361       .  A
C1279      N3116   1.360   1_455  A
N1280      C3115   1.360       .  A
N1280      C1281   1.357       .  A
N1282      C3119   1.358       .  A
C1283      N3118   1.359   1_455  A
C1283      N1284   1.361       .  A
C1285      N1286   1.358       .  A
C1285      N1290   1.366       .  A
N1286      C1287   1.357       .  A
C1287      N1288   1.362       .  A
N1288      C1289   1.361       .  A
C1289      N1290   1.365       .  A
C1291      N1292   1.363       .  A
C1291      N1296   1.357       .  A
N1292      C1293   1.365       .  A
C1293      N1294   1.362       .  A
N1294      C1295   1.361       .  A
C1295      N1296   1.357       .  A
C1297      C1298   1.407   1_545  A
C1297      C1302   1.415       .  A
C1298      C1299   1.407       .  A
C1298      H1303   1.083       .  S
C1299      C1300   1.414   1_565  A
C1299      O1304   1.373       .  S
C1300      C1301   1.405       .  A
C1301      C1302   1.397       .  A
O1304      H1308   0.991       .  S
O1306      H1307   0.992       .  S
C1309      C1310   1.414       .  A
C1309      C1314   1.402       .  A
C1310      C1311   1.407       .  A
C1310      H1315   1.081       .  S
C1311      C1312   1.404       .  A
C1311      O1316   1.371       .  S
C1312      C1313   1.413       .  A
C1313      C1314   1.399       .  A
C1313      H1317   1.082       .  S
C1314      O1318   1.372       .  S
O1316      H1320   0.992       .  S
O1318      H1319   0.992       .  S
C1321      C1322   1.405       .  A
C1321      C1326   1.410   1_565  A
C1322      C1323   1.402       .  A
C1322      H1327   1.084       .  S
C1323      O1328   1.371       .  S
C1324      C1325   1.405       .  A
C1325      H1329   1.084       .  S
O1328      H1332   0.992       .  S
O1330      H1331   0.992       .  S
C1333      C1334   1.411       .  A
C1333      C1338   1.408       .  A
C1334      C1335   1.401       .  A
C1334      H1339   1.083       .  S
C1335      C1336   1.407       .  A
C1335      O1340   1.371       .  S
C1336      C3085   1.487       .  S
C1336      C1337   1.410       .  A
C1337      C1338   1.397       .  A
C1337      H3177   1.083       .  S
C1338      O1342   1.373       .  S
O1340      H1344   0.992       .  S
H1341      C3173   1.083       .  S
O1342      H1343   0.992       .  S
C1345      C1346   1.411       .  A
C1345      C1350   1.408       .  A
C1346      C1347   1.405       .  A
C1346      H1351   1.083       .  S
C1347      C1348   1.405       .  A
C1347      O1352   1.371       .  S
C1348      C1349   1.408       .  A
C1349      C1350   1.399       .  A
C1349      H1353   1.084       .  S
C1350      O1354   1.372       .  S
O1352      H1356   0.992       .  S
O1354      H1355   0.992       .  S
C1357      C1358   1.415       .  A
C1357      C1362   1.409       .  A
C1358      C1359   1.402       .  A
C1358      H1363   1.083       .  S
C1359      C1360   1.403       .  A
C1359      O1364   1.371       .  S
C1360      C1361   1.412       .  A
C1361      C1362   1.406       .  A
C1361      H1365   1.084       .  S
C1362      O1366   1.371       .  S
O1364      H1368   0.992       .  S
O1366      H1367   0.992       .  S
C1369      C1370   1.404       .  A
C1369      C1374   1.411       .  A
C1370      C1371   1.399       .  A
C1370      H1375   1.084       .  S
C1371      C1372   1.408       .  A
C1372      C1373   1.405       .  A
C1373      C1374   1.405       .  A
C1373      H1377   1.084       .  S
C1374      O1378   1.371       .  S
O1376      H1380   0.992   1_545  S
O1378      H1379   0.992       .  S
C1381      C1382   1.402       .  A
C1381      C1386   1.411       .  A
C1382      C1383   1.400       .  A
C1382      H1387   1.084       .  S
C1383      C1384   1.416       .  A
C1383      O1388   1.371       .  S
C1384      C1385   1.405       .  A
C1385      C1386   1.400       .  A
C1385      H1389   1.083       .  S
C1386      O1390   1.373       .  S
O1388      H1392   0.992       .  S
O1390      H1391   0.992       .  S
C1393      C1394   1.407       .  A
C1393      C1398   1.411       .  A
C1394      C1395   1.400       .  A
C1394      H1399   1.084       .  S
C1395      C1396   1.407       .  A
C1395      O1400   1.374       .  S
C1396      C1397   1.406       .  A
C1397      C1398   1.397       .  A
C1397      H1401   1.083       .  S
C1398      O1402   1.372       .  S
O1400      H1404   0.991       .  S
O1402      H1403   0.991       .  S
C1405      C1406   1.405   1_455  A
C1405      C1410   1.416       .  A
C1406      C3243   1.399       .  A
C1406      H1411   1.084       .  S
C1407      C3242   1.401       .  A
C1407      C3244   1.412       .  A
C1407      O1412   1.372       .  S
C1408      C3001   1.470       .  S
C1408      C3243   1.408       .  A
C1408      C1409   1.399   1_655  A
C1409      C1410   1.401       .  A
C1409      H1413   1.084       .  S
C1410      O1414   1.372       .  S
O1412      H1416   0.992       .  S
O1414      H1415   0.992       .  S
C1417      C1418   1.409       .  A
C1417      C1422   1.413       .  A
C1418      C1419   1.397       .  A
C1418      H1423   1.083       .  S
C1419      C1420   1.410       .  A
C1419      O1424   1.372       .  S
C1420      C1421   1.407       .  A
C1421      C1422   1.405       .  A
C1421      H1425   1.083       .  S
C1422      O1426   1.371       .  S
O1424      H1428   0.992       .  S
O1426      H1427   0.992       .  S
C1429      C1430   1.402       .  A
C1429      C1434   1.418       .  A
C1430      C1431   1.402       .  A
C1430      H1435   1.084       .  S
C1431      C1432   1.417       .  A
C1431      O1436   1.371       .  S
C1432      C1433   1.406       .  A
C1433      C1434   1.409       .  A
C1433      H1437   1.083       .  S
C1434      O1438   1.371       .  S
O1436      H1440   0.992       .  S
O1438      H1439   0.992       .  S
C1441      C1446   1.404       .  A
C1442      C1443   1.397       .  A
C1442      H1447   1.084       .  S
C1443      O1448   1.372       .  S
C1444      C1445   1.409       .  A
C1445      C1446   1.400       .  A
C1445      H1449   1.084       .  S
C1446      O1450   1.371       .  S
O1448      H1452   0.992       .  S
O1450      H1451   0.992       .  S
C1453      C1458   1.418       .  A
C1454      C1455   1.403       .  A
C1454      H1459   1.083       .  S
C1455      O1460   1.372       .  S
C1456      C1457   1.402   1_565  A
C1457      C1458   1.404       .  A
C1457      H1461   1.083       .  S
C1458      O1462   1.372       .  S
O1460      H1464   0.992       .  S
O1462      H1463   0.992       .  S
C1465      C1466   1.403       .  A
C1465      C1470   1.409       .  A
C1466      C1467   1.400       .  A
C1466      H1471   1.084       .  S
C1467      C1468   1.414       .  A
C1467      O1472   1.373       .  S
C1468      C1469   1.407       .  A
C1469      C1470   1.398       .  A
C1469      H1473   1.084       .  S
C1470      O1474   1.371       .  S
O1472      H1476   0.992       .  S
O1474      H1475   0.991       .  S
C1477      C1478   1.404       .  A
C1477      C1482   1.404       .  A
C1478      C1479   1.405       .  A
C1478      H1483   1.084       .  S
C1479      C1480   1.413       .  A
C1479      O3320   1.371       .  S
C1480      C1481   1.410       .  A
C1481      C1482   1.398       .  A
C1481      H1485   1.083       .  S
C1482      O1486   1.372       .  S
O1484      C3315   1.371   1_655  S
O1484      H1488   0.992       .  S
O1486      H1487   0.992       .  S
C1489      C1490   1.411       .  A
C1489      C1494   1.409       .  A
C1490      C1491   1.401       .  A
C1490      H1495   1.083       .  S
C1491      C1492   1.406       .  A
C1491      O1496   1.371       .  S
C1492      C1493   1.408       .  A
C1493      C1494   1.399       .  A
C1493      H1497   1.084       .  S
C1494      O1498   1.371       .  S
O1496      H1500   0.991       .  S
O1498      H1499   0.992       .  S
C1501      C1502   1.405       .  A
C1501      C1506   1.406       .  A
C1502      C3339   1.399       .  A
C1502      H3343   1.084       .  S
C1503      C3338   1.397       .  A
C1503      C3340   1.411       .  A
C1503      O1508   1.371       .  S
C1504      C2937   1.483       .  S
C1504      C3339   1.409       .  A
C1504      C1505   1.409       .  A
C1505      C1506   1.405       .  A
C1505      H1509   1.084       .  S
C1506      O1510   1.371       .  S
H1507      C3338   1.084       .  S
O1508      H1512   0.992       .  S
O1510      H1511   0.992       .  S
C1513      C1514   1.402   1_455  A
C1513      C1518   1.416       .  A
C1514      C1515   1.404       .  A
C1514      H3355   1.083       .  S
C1515      C1516   1.420   1_655  A
C1515      O3356   1.372       .  S
C1516      C1517   1.404       .  A
C1517      C1518   1.400       .  A
C1517      H1521   1.083       .  S
C1518      O1522   1.371       .  S
H1519      C3350   1.083       .  S
O1520      C3351   1.372       .  S
O1520      H1524   0.992       .  S
O1522      H1523   0.992       .  S
C1525      C3362   1.413       .  A
C1525      C1530   1.409       .  A
C1526      C3361   1.410   1_455  A
C1526      C1527   1.403   1_455  A
C1526      H1531   1.083       .  S
C1527      C3364   1.409       .  A
C1527      O1532   1.371   1_655  S
C1528      C3363   1.408       .  A
C1528      C1529   1.409       .  A
C1529      C1530   1.395       .  A
C1529      H1533   1.083       .  S
C1530      O1534   1.372       .  S
O1532      H1536   0.992       .  S
O1534      H1535   0.992       .  S
C1537      C3374   1.417       .  A
C1537      C1542   1.408       .  A
C1538      C3373   1.415       .  A
C1538      C1539   1.407       .  A
C1538      H1543   1.083       .  S
C1539      C3376   1.402       .  A
C1539      O1544   1.371       .  S
C1540      C3375   1.403       .  A
C1540      C1541   1.410       .  A
C1541      C1542   1.405       .  A
C1541      H1545   1.084   1_455  S
C1542      O1546   1.372   1_455  S
O1544      H1548   0.992       .  S
O1546      H1547   0.992       .  S
C1549      C1550   1.404       .  A
C1549      C1554   1.407   1_556  A
C1550      C1551   1.397       .  A
C1550      H1555   1.084       .  S
C1551      C1552   1.412       .  A
C1551      O1556   1.372       .  S
C1552      C1553   1.409   1_556  A
C1553      C1554   1.397       .  A
C1553      H1557   1.083       .  S
C1554      O1558   1.371       .  S
O1556      H1560   0.992       .  S
O1558      H1559   0.992       .  S
C1561      C1562   1.407       .  A
C1561      C1566   1.407       .  A
C1562      C1563   1.398       .  A
C1562      H1567   1.083       .  S
C1563      C1564   1.408       .  A
C1563      O1568   1.372       .  S
C1564      C1565   1.409       .  A
C1565      C1566   1.400       .  A
C1565      H1569   1.083       .  S
C1566      O1570   1.372       .  S
O1568      H1572   0.992       .  S
O1570      H1571   0.992       .  S
C1573      C1574   1.400       .  A
C1573      C1578   1.412       .  A
C1574      C1575   1.395       .  A
C1574      H1579   1.084       .  S
C1575      C1576   1.416       .  A
C1575      O1580   1.374       .  S
C1576      C1577   1.403       .  A
C1577      C1578   1.403       .  A
C1577      H1581   1.083       .  S
C1578      O1582   1.374       .  S
O1580      H1584   0.992       .  S
O1582      H1583   0.992       .  S
C1585      C1586   1.409       .  A
C1586      C1587   1.399       .  A
C1586      H1591   1.084       .  S
C1587      C1588   1.408       .  A
C1587      O1592   1.372       .  S
C1589      C1590   1.400       .  A
C1589      H1593   1.083       .  S
C1590      O1594   1.371       .  S
O1592      H1596   0.992       .  S
O1594      H1595   0.992       .  S
C1597      C1598   1.407       .  A
C1597      C1602   1.409       .  A
C1598      C1599   1.397       .  A
C1598      H1603   1.084       .  S
C1599      C1600   1.409       .  A
C1599      O1604   1.373       .  S
C1600      C1601   1.406       .  A
C1601      C1602   1.392       .  A
C1601      H1605   1.084       .  S
C1602      O1606   1.374       .  S
O1604      H1608   0.992       .  S
O1606      H1607   0.993       .  S
C1609      C1610   1.399       .  A
C1609      C1614   1.410       .  A
C1610      C1611   1.394       .  A
C1610      H1615   1.084       .  S
C1611      C1612   1.412       .  A
C1611      O1616   1.373       .  S
C1612      C1613   1.402       .  A
C1613      C1614   1.401       .  A
C1613      H1617   1.084       .  S
C1614      O1618   1.372       .  S
O1616      H1620   0.992       .  S
O1618      H1619   0.992       .  S
C1621      C1622   1.401       .  A
C1621      C1626   1.402       .  A
C1622      C1623   1.392       .  A
C1623      C1624   1.410       .  A
C1623      O1628   1.372       .  S
C1624      C1625   1.411       .  A
C1625      C1626   1.400       .  A
C1625      H1629   1.083       .  S
C1626      O1630   1.372       .  S
O1630      H1631   0.992       .  S
C1633      C1634   1.399       .  A
C1633      C1638   1.415       .  A
C1634      C1635   1.394       .  A
C1634      H1639   1.084       .  S
C1635      C1636   1.412       .  A
C1635      O1640   1.374       .  S
C1636      C1637   1.399       .  A
C1637      C1638   1.402       .  A
C1637      H1641   1.083       .  S
C1638      O1642   1.371       .  S
O1640      H1644   0.992       .  S
O1642      H1643   0.991       .  S
C1645      C1646   1.407       .  A
C1645      C1650   1.404       .  A
C1646      C1647   1.399       .  A
C1646      H1651   1.084       .  S
C1647      C1648   1.406       .  A
C1647      O1652   1.372       .  S
C1648      C1649   1.410       .  A
C1649      C1650   1.402       .  A
C1649      H1653   1.083       .  S
C1650      O1654   1.371       .  S
O1652      H1656   0.992       .  S
O1654      H1655   0.992       .  S
C1657      C1658   1.409       .  A
C1657      C1662   1.403       .  A
C1658      C1659   1.395       .  A
C1658      H1663   1.084       .  S
C1659      C1660   1.402       .  A
C1659      O1664   1.372       .  S
C1660      C1661   1.409       .  A
C1661      C1662   1.396       .  A
C1661      H1665   1.084       .  S
C1662      O1666   1.371       .  S
O1664      H1668   0.992       .  S
O1666      H1667   0.992       .  S
C1669      C1670   1.397       .  A
C1669      C1674   1.409       .  A
C1670      C1671   1.389       .  A
C1670      H1675   1.085       .  S
C1671      C1672   1.412       .  A
C1671      O1676   1.372       .  S
C1672      C1673   1.408       .  A
C1673      C1674   1.408       .  A
C1673      H1677   1.083       .  S
C1674      O1678   1.371       .  S
O1676      H1680   0.992       .  S
O1678      H1679   0.992       .  S
C1681      C1682   1.407       .  A
C1681      C1686   1.411       .  A
C1682      C1683   1.403       .  A
C1682      H1687   1.084       .  S
C1683      C1684   1.406       .  A
C1683      O1688   1.372       .  S
C1684      C1685   1.399       .  A
C1685      C1686   1.397       .  A
C1685      H1689   1.084       .  S
C1686      O1690   1.372       .  S
O1688      H1692   0.992       .  S
O1690      H1691   0.991       .  S
C1693      C1698   1.413       .  A
C1694      C1695   1.398       .  A
C1694      H1699   1.083   1_556  S
C1695      C1696   1.409       .  A
C1695      O1700   1.371   1_556  S
C1697      C1698   1.400       .  A
C1697      H1701   1.084       .  S
C1698      O1702   1.373       .  S
O1700      H1704   0.991       .  S
O1702      H1703   0.992       .  S
C1705      C1706   1.401       .  A
C1705      C1710   1.417       .  A
C1706      C1707   1.402       .  A
C1706      H1711   1.083       .  S
C1707      C1708   1.413   1_565  A
C1707      O1712   1.371   1_565  S
C1708      C1709   1.397   1_545  A
C1709      C1710   1.398       .  A
C1710      O1714   1.371       .  S
O1712      H1716   0.992   1_545  S
C1717      C3554   1.404   1_554  A
C1717      C1722   1.408       .  A
C1718      C3553   1.403   1_556  A
C1718      C1719   1.398       .  A
C1718      H1723   1.084       .  S
C1719      C1720   1.412   1_556  A
C1719      O1724   1.374       .  S
C1720      C3557   1.408       .  A
C1721      C3556   1.409       .  A
C1721      C1722   1.400       .  A
C1721      H1725   1.083       .  S
C1722      O1726   1.374       .  S
O1724      H1728   0.991       .  S
O1726      H1727   0.993       .  S
C1729      C1730   1.401       .  A
C1729      C1734   1.419       .  A
C1730      C1731   1.401       .  A
C1730      H1735   1.084       .  S
C1731      C1732   1.412       .  A
C1731      O1736   1.374       .  S
C1732      C1733   1.401       .  A
C1733      C1734   1.406       .  A
C1733      H1737   1.084       .  S
C1734      O1738   1.372       .  S
O1736      H1740   0.991       .  S
O1738      H1739   0.991       .  S
C1741      C1742   1.405       .  A
C1741      C1746   1.411       .  A
C1742      C1743   1.398   1_545  A
C1742      H1747   1.083       .  S
C1743      C1744   1.413       .  A
C1743      O1748   1.371       .  S
C1744      C1745   1.404       .  A
C1745      C1746   1.392   1_565  A
C1745      H1749   1.084       .  S
C1746      O1750   1.373       .  S
O1748      H1752   0.992       .  S
O1750      H1751   0.990       .  S
C1753      C1754   1.402       .  A
C1753      C1758   1.402       .  A
C1754      C1755   1.404       .  A
C1754      H1759   1.084       .  S
C1755      C1756   1.413       .  A
C1755      O1760   1.371       .  S
C1756      C1757   1.409       .  A
C1757      C1758   1.394       .  A
O1760      H1764   0.991       .  S
O1762      H1763   0.991   1_565  S
C1765      C1766   1.409       .  A
C1765      C1770   1.402       .  A
C1766      C1767   1.398       .  A
C1766      H1771   1.084       .  S
C1767      C1768   1.411       .  A
C1767      O1772   1.371       .  S
C1768      C1769   1.408       .  A
C1769      C1770   1.392       .  A
C1769      H1773   1.079   1_455  S
C1770      O1774   1.370       .  S
O1772      H1776   0.991   1_455  S
O1774      H1775   0.991       .  S
C1777      C3614   1.401       .  A
C1777      C1782   1.409       .  A
C1778      C3613   1.402       .  A
C1778      C1779   1.404   1_655  A
C1778      H1783   1.084   1_655  S
C1779      C3616   1.412   1_455  A
C1779      O1784   1.370       .  S
C1780      C3615   1.412       .  A
C1780      C1781   1.405       .  A
C1781      C1782   1.403       .  A
C1781      H1785   1.083       .  S
C1782      O1786   1.372       .  S
O1784      H1788   0.992       .  S
O1786      H1787   0.992       .  S
C1789      C1790   1.409       .  A
C1789      C1794   1.410       .  A
C1790      H1795   1.084       .  S
C1791      O1796   1.372   1_545  S
C1792      C1793   1.408       .  A
C1793      C1794   1.402       .  A
C1793      H1797   1.084       .  S
C1794      O1798   1.372       .  S
O1796      H1800   0.992   1_565  S
O1798      H1799   0.992       .  S
C1801      C1802   1.411       .  A
C1801      C3642   1.406   1_455  A
C1802      C3639   1.401   1_455  A
C1802      H1807   1.083       .  S
C1803      C3638   1.398       .  A
C1803      C1804   1.409       .  A
C1803      O1808   1.371       .  S
C1804      C1805   1.413       .  A
C1805      C1806   1.395       .  A
C1805      H1809   1.083       .  S
C1806      C3637   1.398       .  A
C1806      O1810   1.372       .  S
O1808      H3648   0.992       .  S
O1810      H1811   0.992       .  S
H1812      O3644   0.992       .  S
C1813      C1814   1.398       .  A
C1813      C1818   1.414       .  A
C1814      C1815   1.403       .  A
C1814      H1819   1.084       .  S
C1815      C1816   1.419       .  A
C1815      O1820   1.371       .  S
C1816      C1817   1.400       .  A
C1817      C1818   1.397       .  A
C1817      H1821   1.084       .  S
O1820      H1824   0.992       .  S
O1822      H1823   0.991       .  S
C1825      C1826   1.411       .  A
C1825      C1830   1.407       .  A
C1826      C1827   1.400       .  A
C1826      H1831   1.083       .  S
C1827      C1828   1.409       .  A
C1827      O1832   1.371       .  S
C1828      C1829   1.414       .  A
C1829      C1830   1.405       .  A
C1829      H1833   1.083       .  S
C1830      O1834   1.371       .  S
O1832      H1836   0.992       .  S
O1834      H1835   0.992       .  S
O1837     Ni1843   1.932       .  S
O1837      C1858   1.273       .  A
O1838     Ni1861   1.941       .  S
O1838      C1847   1.277       .  A
O1839     Ni1843   1.907       .  S
O1839     Ni1861   1.922       .  S
O1839     Ni1855   1.923       .  S
O1839      H1862   0.966       .  S
C1840      O1857   1.276       .  A
C1840      O1849   1.277       .  A
C1840      C2707   1.480       .  S
O1841     Ni1860   1.934       .  S
O1841      C1847   1.271       .  A
O1842     Ni1860   1.899       .  S
O1842      C1844   1.268       .  A
Ni1843     O1846   1.933       .  S
Ni1843     O1848   1.903       .  S
C1844      O1854   1.277       .  A
C1844      C2722   1.476       .  S
O1845     Ni1861   1.924       .  S
O1845      C1851   1.278       .  A
O1846      C1851   1.276       .  A
C1847      C2179   1.485       .  S
O1848      C1850   1.268       .  A
O1849     Ni1860   1.922       .  S
C1850      O1856   1.280       .  A
C1850      C2734   1.480       .  S
C1851      C2746   1.497       .  S
H1852      O1853   0.966       .  S
O1853     Ni1861   1.913       .  S
O1853     Ni1855   1.905       .  S
O1853     Ni1860   1.899       .  S
O1854     Ni1855   1.935       .  S
Ni1855     O1859   1.925       .  S
Ni1855     O1857   1.920       .  S
O1856     Ni1861   1.945       .  S
C1858      O1859   1.272       .  A
C1858      C2209   1.476       .  S
C1863      C2695   1.479       .  S
C1863      N1868   1.366       .  A
N1864      C1865   1.357       .  A
C1865      C2686   1.483       .  S
C1865      N1866   1.353       .  A
C1867      C2743   1.488       .  S
C1867      N1868   1.365       .  A
C1869      C2671   1.469       .  S
C1869      N1870   1.366       .  A
C1869      N2792   1.357       .  A
N1870      C1871   1.362       .  A
C1871      C2731   1.477       .  S
C1871      N1872   1.351       .  A
N1872      C2791   1.349       .  A
C1873      C2659   1.474       .  S
C1873      N2790   1.346       .  A
C1873      N1874   1.352       .  A
N1874      C2787   1.357       .  A
C1875      C2650   1.482       .  S
C1875      N1876   1.364   1_556  A
C1875      N1880   1.354       .  A
N1876      C1877   1.366       .  A
C1877      C2719   1.485       .  S
C1877      N1878   1.358       .  A
N1878      C1879   1.354       .  A
C1879      C2638   1.481       .  S
C1879      N1880   1.353   1_554  A
C1881      C3628   1.485       .  S
C1881      N1882   1.357   1_554  A
C1881      N1886   1.360   1_554  A
N1882      C1883   1.357       .  A
C1883      C2611   1.484       .  S
C1883      N1884   1.356       .  A
N1884      C1885   1.357       .  A
C1885      C2626   1.477       .  S
C1885      N1886   1.362       .  A
O1887     Ni1893   1.915       .  S
O1887      C1908   1.269       .  A
O1888     Ni1911   1.921       .  S
O1888      C1897   1.265       .  A
O1889     Ni1893   1.927       .  S
O1889     Ni1911   1.926       .  S
O1889     Ni1905   1.952       .  S
O1889      H1912   0.966       .  S
C1890      O1907   1.281       .  A
C1890      O1899   1.275       .  A
C1890      C2575   1.468       .  S
O1891     Ni1910   1.921       .  S
O1891      C1897   1.265       .  A
O1892     Ni1910   1.891       .  S
O1892      C1894   1.265       .  A
Ni1893     O1896   1.939       .  S
Ni1893     O1898   1.903       .  S
C1894      O1904   1.276       .  A
C1894      C2599   1.481       .  S
O1895     Ni1911   1.896       .  S
O1895      C1901   1.264       .  A
O1896      C1901   1.269       .  A
C1897      C2185   1.462       .  S
O1898      C1900   1.271       .  A
O1899     Ni1910   1.917       .  S
C1900      O1906   1.280       .  A
C1900      C2563   1.470       .  S
C1901      C2587   1.476       .  S
H1902      O1903   0.966       .  S
O1903     Ni1911   1.889       .  S
O1903     Ni1905   1.897       .  S
O1903     Ni1910   1.906       .  S
O1904     Ni1905   1.940       .  S
Ni1905     O1909   1.932       .  S
Ni1905     O1907   1.922       .  S
O1906     Ni1911   1.948       .  S
C1908      O1909   1.273       .  A
C1908      C2191   1.476       .  S
O1913     Ni1919   1.904       .  S
O1913      C1934   1.265       .  A
O1914     Ni1937   1.928       .  S
O1914      C1923   1.274       .  A
O1915     Ni1919   1.888       .  S
O1915     Ni1937   1.901       .  S
O1915     Ni1931   1.913       .  S
O1915      H1938   0.966       .  S
C1916      O1933   1.280       .  A
C1916      O1925   1.277       .  A
C1916      C2623   1.475       .  S
O1917     Ni1936   1.920       .  S
O1917      C1923   1.270       .  A
O1918     Ni1936   1.901       .  S
O1918      C1920   1.265       .  A
Ni1919     O1922   1.896       .  S
Ni1919     O1924   1.915       .  S
C1920      O1930   1.274       .  A
C1920      C2551   1.475       .  S
O1921     Ni1937   1.939       .  S
O1921      C1927   1.281       .  A
O1922      C1927   1.271       .  A
C1923      C2199   1.467       .  S
O1924      C1926   1.270       .  A
O1925     Ni1936   1.927       .  S
C1926      O1932   1.272       .  A
C1926      C2542   1.481       .  S
C1927      C2527   1.462       .  S
H1928      O1929   0.966       .  S
O1929     Ni1937   1.914       .  S
O1929     Ni1931   1.909       .  S
O1929     Ni1936   1.895       .  S
O1930     Ni1931   1.929       .  S
Ni1931     O1935   1.940       .  S
Ni1931     O1933   1.920       .  S
O1932     Ni1937   1.917       .  S
C1934      O1935   1.274       .  A
C1934      C2205   1.467       .  S
C1939      C2530   1.471       .  S
C1939      N1940   1.366       .  A
C1939      N1944   1.356       .  A
N1940      C1941   1.363       .  A
C1941      C2590   1.483       .  S
C1941      N1942   1.352       .  A
N1942      C1943   1.350       .  A
C1943      C2515   1.479       .  S
C1943      N1944   1.351       .  A
C1945      C2503   1.488       .  S
C1945      N2864   1.365   1_545  A
C1945      N1950   1.355       .  A
N1946      C2863   1.363       .  A
N1946      C1947   1.363       .  A
C1947      C2539   1.472       .  S
C1947      N2866   1.356       .  A
N1948      C2865   1.358   1_545  A
N1948      C1949   1.351       .  A
C1949      C2491   1.484       .  S
C1949      N1950   1.354       .  A
C1951      C2479   1.475       .  S
C1951      N1952   1.358       .  A
C1951      N1956   1.366   1_554  A
N1952      C1953   1.353       .  A
C1953      C2467   1.478       .  S
C1953      N1954   1.349   1_554  A
N1954      C1955   1.350       .  A
C1955      C2554   1.474       .  S
C1955      N1956   1.360       .  A
O1957     Ni1963   1.921       .  S
O1957      C1978   1.270       .  A
O1958     Ni1981   1.928       .  S
O1958      C1967   1.269       .  A
O1959     Ni1963   1.928       .  S
O1959     Ni1975   1.950       .  S
O1959      H1982   0.967       .  S
C1960      O1977   1.280       .  A
C1960      C2434   1.492       .  S
O1961     Ni1980   1.923       .  S
O1961      C1967   1.264       .  A
O1962     Ni1980   1.899       .  S
O1962      C1964   1.264       .  A
Ni1963     O1966   1.940       .  S
Ni1963     O1968   1.902       .  S
C1964      C2698   1.479       .  S
O1965     Ni1981   1.906       .  S
O1965      C1971   1.266   1_655  A
C1967      C2187   1.467       .  S
O1968      C1970   1.271       .  A
O1969     Ni1980   1.921       .  S
C1970      C2455   1.503       .  S
C1971      C2443   1.488   1_455  S
H1972      O1973   0.968       .  S
O1973     Ni1981   1.897       .  S
O1973     Ni1980   1.909       .  S
O1974     Ni1975   1.954       .  S
Ni1975     O1979   1.929       .  S
Ni1975     O1977   1.921       .  S
O1976     Ni1981   1.972       .  S
C1978      O1979   1.273       .  A
C1978      C2193   1.478       .  S
O1983     Ni1989   1.920       .  S
O1983      C2004   1.271       .  A
O1984     Ni2007   1.929       .  S
O1984      C1993   1.268       .  A
O1985     Ni1989   1.922       .  S
O1985     Ni2007   1.913       .  S
O1985     Ni2001   1.935       .  S
O1985      H2008   0.966       .  S
C1986      O2003   1.279       .  A
C1986      O1995   1.273       .  A
C1986      C2395   1.469       .  S
O1987     Ni2006   1.918       .  S
O1987      C1993   1.265       .  A
O1988     Ni2006   1.890       .  S
O1988      C1990   1.266       .  A
Ni1989     O1992   1.925       .  S
Ni1989     O1994   1.910       .  S
C1990      O2000   1.275       .  A
C1990      C2482   1.472       .  S
O1991     Ni2007   1.895       .  S
O1991      C1997   1.264       .  A
O1992      C1997   1.269       .  A
C1993      C2181   1.469       .  S
O1994      C1996   1.274       .  A
O1995     Ni2006   1.904       .  S
C1996      O2002   1.282       .  A
C1996      C2419   1.482       .  S
C1997      C2407   1.481       .  S
H1998      O1999   0.966       .  S
O1999     Ni2007   1.903       .  S
O1999     Ni2001   1.910       .  S
O1999     Ni2006   1.907       .  S
O2000     Ni2001   1.932       .  S
Ni2001     O2005   1.929       .  S
Ni2001     O2003   1.931       .  S
O2002     Ni2007   1.952       .  S
C2004      O2005   1.274       .  A
C2004      C2213   1.473       .  S
C2009      C2410   1.485       .  S
C2009      N2010   1.362       .  A
C2009      N2014   1.352       .  A
N2010      C2011   1.364       .  A
C2011      C2602   1.467       .  S
C2011      N2012   1.355       .  A
N2012      C2013   1.352       .  A
C2013      C2662   1.477       .  S
C2013      N2014   1.351       .  A
C2015      C2431   1.488       .  S
C2015      N2016   1.354       .  A
N2016      C2017   1.355       .  A
C2017      C2386   1.485       .  S
C2017      N2018   1.358       .  A
N2018      C2019   1.359       .  A
O2021     Ni2027   1.923       .  S
O2021      C2042   1.269       .  A
O2022     Ni2045   1.939       .  S
O2022      C2031   1.271       .  A
O2023     Ni2027   1.927       .  S
O2023     Ni2963   1.932   1_545  S
O2023     Ni2039   1.945       .  S
O2023      H2046   0.965       .  S
C2024      O2041   1.279   1_565  A
C2024      O2951   1.275       .  A
C2024      C2506   1.493       .  S
O2025     Ni2044   1.922       .  S
O2025      C2031   1.265       .  A
O2026     Ni2044   1.906       .  S
O2026      C2946   1.268       .  A
Ni2027     O2030   1.928       .  S
Ni2027     O2032   1.904       .  S
C2028      O2944   1.265       .  A
C2028      O2038   1.273   1_565  A
C2028      C3277   1.477       .  S
O2029     Ni2045   1.914       .  S
O2029      C2035   1.270       .  A
O2030      C2953   1.271       .  A
C2031      C2195   1.476       .  S
O2032      C2034   1.270       .  A
O2033     Ni2044   1.915       .  S
O2033      C2942   1.275       .  A
C2034      O2958   1.278   1_545  A
C2034      C2674   1.478       .  S
C2035      O2948   1.268       .  A
C2035      C2371   1.492       .  S
H2036      O2037   0.967       .  S
O2037     Ni2045   1.897       .  S
O2037     Ni2957   1.903       .  S
O2037     Ni2044   1.912       .  S
O2038     Ni2039   1.931       .  S
Ni2039     O2043   1.922       .  S
Ni2039     O2041   1.923       .  S
Ni2039     O2955   1.908   1_545  S
O2040     Ni2045   1.945       .  S
O2040      C2952   1.282       .  A
C2042      O2043   1.269       .  A
C2042      C2189   1.473       .  S
Ni2045     O2941   1.935       .  S
O2047     Ni2053   1.941       .  S
O2047      C2068   1.275       .  A
O2048     Ni2071   1.929       .  S
O2048      C2057   1.274       .  A
O2049     Ni2053   1.901       .  S
O2049     Ni2071   1.896       .  S
O2049     Ni2065   1.901       .  S
O2049      H2072   0.966       .  S
C2050      O2067   1.271       .  A
C2050      O2059   1.276       .  A
C2050      C2338   1.483       .  S
O2051     Ni2070   1.938       .  S
O2051      C2057   1.275       .  A
O2052     Ni2070   1.909       .  S
O2052      C2054   1.272       .  A
Ni2053     O2056   1.921       .  S
Ni2053     O2058   1.917       .  S
C2054      O2064   1.277       .  A
C2054      C2323   1.482       .  S
O2055     Ni2071   1.937       .  S
O2055      C2061   1.286       .  A
O2056      C2061   1.280       .  A
C2057      C2207   1.479       .  S
O2058      C2060   1.270       .  A
O2059     Ni2070   1.937       .  S
C2060      O2066   1.272       .  A
C2060      C2347   1.493       .  S
C2061      C2647   1.485       .  S
H2062      O2063   0.966       .  S
O2063     Ni2071   1.923       .  S
O2063     Ni2065   1.910       .  S
O2063     Ni2070   1.911       .  S
O2064     Ni2065   1.940       .  S
Ni2065     O2069   1.919       .  S
Ni2065     O2067   1.900       .  S
O2066     Ni2071   1.922       .  S
C2068      O2069   1.268       .  A
C2068      C2201   1.476       .  S
C2073      C2335   1.489       .  S
C2073      N2074   1.356       .  A
C2073      N2078   1.359       .  A
N2074      C2075   1.356       .  A
C2075      C2311   1.485       .  S
C2075      N2076   1.357       .  A
N2076      C2077   1.356       .  A
C2077      C2566   1.472       .  S
C2077      N2078   1.361       .  A
C2079      C2446   1.485       .  S
C2079      N2080   1.355       .  A
N2080      C2081   1.354       .  A
C2081      C2494   1.480       .  S
C2081      N2082   1.355       .  A
N2082      C2083   1.358       .  A
O2085     Ni2091   1.929       .  S
O2085      C2106   1.269       .  A
O2086     Ni2109   1.950       .  S
O2086      C2095   1.278       .  A
O2087     Ni2091   1.895       .  S
O2087     Ni2109   1.904       .  S
O2087     Ni2103   1.917       .  S
O2087      H2110   0.966       .  S
C2088      O2105   1.281       .  A
C2088      O2097   1.278       .  A
C2088      C2302   1.489       .  S
O2089     Ni2108   1.917       .  S
O2089      C2095   1.266       .  A
O2090     Ni2108   1.897       .  S
O2090      C2092   1.266       .  A
Ni2091     O2094   1.921       .  S
Ni2091     O2096   1.896       .  S
C2092      O2102   1.272       .  A
C2092      C2287   1.475       .  S
O2093     Ni2109   1.928       .  S
O2093      C2099   1.284       .  A
O2094      C2099   1.279       .  A
C2095      C2211   1.479       .  S
O2096      C2098   1.267       .  A
O2097     Ni2108   1.922       .  S
C2098      O2104   1.277       .  A
C2098      C2278   1.470       .  S
C2099      C2263   1.486       .  S
H2100      O2101   0.966       .  S
O2101     Ni2109   1.921       .  S
O2101     Ni2103   1.901       .  S
O2101     Ni2108   1.896       .  S
O2102     Ni2103   1.925       .  S
Ni2103     O2107   1.925       .  S
Ni2103     O2105   1.920       .  S
O2104     Ni2109   1.934       .  S
C2106      O2107   1.270       .  A
C2106      C2183   1.469       .  S
C2111      C2299   1.484       .  S
C2111      N2112   1.358       .  A
C2111      N2116   1.363       .  A
N2112      C2113   1.357       .  A
C2113      C2683   1.483       .  S
C2113      N2114   1.351       .  A
N2114      C2115   1.355       .  A
C2115      C2578   1.475       .  S
C2115      N2116   1.363       .  A
C2117      C2374   1.483       .  S
C2117      N3036   1.360       .  A
C2117      N2122   1.356       .  A
N2118      C3035   1.360       .  A
N2118      C2119   1.359       .  A
C2119      C2290   1.462   1_565  S
C2119      N3038   1.354       .  A
N2120      C3037   1.356       .  A
N2120      C2121   1.357       .  A
C2121      C2383   1.483       .  S
C2121      N2122   1.358       .  A
C2123      C2350   1.492       .  S
C2123      N2124   1.361       .  A
C2123      N2128   1.365       .  A
N2124      C2125   1.358       .  A
C2125      C2470   1.482       .  S
C2125      N2126   1.350   1_556  A
N2126      C2127   1.351       .  A
C2127      C2275   1.487       .  S
C2127      N2128   1.363   1_554  A
O2129     Ni2135   1.919       .  S
O2129      C2150   1.268       .  A
O2130     Ni2153   1.928       .  S
O2130      C2139   1.271       .  A
O2131     Ni2135   1.917       .  S
O2131     Ni2153   1.917       .  S
O2131     Ni2147   1.923       .  S
O2131      H2154   0.966       .  S
C2132      O2149   1.271       .  A
C2132      O2141   1.266       .  A
C2132      C2251   1.489       .  S
O2133     Ni2152   1.903       .  S
O2133      C2139   1.264       .  A
O2134     Ni2152   1.909       .  S
O2134      C2136   1.273       .  A
Ni2135     O2138   1.924       .  S
Ni2135     O2140   1.900       .  S
C2136      O2146   1.280       .  A
C2136      C2239   1.488       .  S
O2137     Ni2153   1.910       .  S
O2137      C2143   1.272       .  A
O2138      C2143   1.271       .  A
C2139      C2197   1.466       .  S
O2140      C2142   1.268       .  A
O2141     Ni2152   1.910       .  S
C2142      O2148   1.283       .  A
C2142      C2227   1.497       .  S
C2143      C2218   1.484       .  S
H2144      O2145   0.966       .  S
O2145     Ni2153   1.936       .  S
O2145     Ni2147   1.925       .  S
O2145     Ni2152   1.927       .  S
O2146     Ni2147   1.955       .  S
Ni2147     O2151   1.912       .  S
Ni2147     O2149   1.920       .  S
O2148     Ni2153   1.971       .  S
C2150      O2151   1.266       .  A
C2150      C2203   1.462       .  S
C2155      C2458   1.492       .  S
C2155      N2160   1.376       .  A
N2156      C2157   1.349   1_455  A
C2157      C2518   1.476       .  S
N2158      C2159   1.355       .  A
C2159      C2230   1.488       .  S
C2159      N2160   1.379       .  A
C2161      C2362   1.473       .  S
C2161      N3080   1.355       .  A
C2161      N2166   1.364       .  A
N2162      C3079   1.352       .  A
N2162      C2163   1.354       .  A
C2163      C2314   1.481   1_565  S
C2163      N2164   1.360       .  A
N2164      C3083   1.360       .  A
C2165      C2215   1.490       .  S
C2165      N3082   1.356       .  A
C2165      N2166   1.364       .  A
C2167      N2168   1.365   1_556  A
C2167      N2172   1.354       .  A
N2168      C2169   1.367       .  A
C2169      C2398   1.481       .  S
C2169      N2170   1.357       .  A
N2170      C2171   1.354       .  A
C2171      C2635   1.484       .  S
C2171      N2172   1.354   1_554  A
C2173      C2266   1.481   1_556  S
C2173      N2174   1.353       .  A
C2173      N2178   1.363       .  A
N2174      C2175   1.353       .  A
C2175      C2614   1.484       .  S
C2175      N2176   1.357       .  A
N2176      C2177   1.357       .  A
C2177      C2242   1.475       .  S
C2177      N2178   1.367       .  A
C2179      N3098   1.361   1_545  A
N2180      C3097   1.363       .  A
N2180      C2181   1.363       .  A
N2182      C3101   1.360       .  A
C2183      N3100   1.357   1_545  A
C2183      N2184   1.361       .  A
C2185      N2186   1.358       .  A
C2185      N2190   1.360       .  A
N2186      C2187   1.357       .  A
C2187      N2188   1.363       .  A
N2188      C2189   1.360       .  A
C2189      N2190   1.359       .  A
C2191      N2192   1.363       .  A
C2191      N2196   1.363       .  A
N2192      C2193   1.362       .  A
C2193      N2194   1.362       .  A
N2194      C2195   1.362       .  A
C2195      N2196   1.362       .  A
C2197      N3120   1.362       .  A
N2198      C2199   1.357       .  A
C2199      N3118   1.360       .  A
N2200      C3117   1.363   1_545  A
C2201      N2202   1.362       .  A
N2202      C3115   1.364   1_545  A
C2203      N2204   1.356       .  A
C2203      N2208   1.361       .  A
N2204      C2205   1.356       .  A
C2205      N2206   1.365       .  A
N2206      C2207   1.363       .  A
C2207      N2208   1.360       .  A
C2209      N2210   1.363       .  A
C2209      N2214   1.358       .  A
N2210      C2211   1.365       .  A
C2211      N2212   1.363       .  A
N2212      C2213   1.364       .  A
C2213      N2214   1.358       .  A
C2215      C2216   1.405       .  A
C2215      C2220   1.416       .  A
C2216      C2217   1.404       .  A
C2216      H2221   1.083       .  S
C2217      C2218   1.414       .  A
C2217      O2222   1.373       .  S
C2218      C2219   1.402       .  A
C2219      C2220   1.396       .  A
C2219      H3141   1.084       .  S
C2220      O3142   1.370       .  S
O2222      H2226   0.992       .  S
H2223      C3137   1.083       .  S
O2224      C3138   1.370       .  S
O2224      H2225   0.992       .  S
C2227      C2228   1.412       .  A
C2227      C2232   1.412       .  A
C2228      C2229   1.414       .  A
C2228      H2233   1.084       .  S
C2229      C2230   1.410       .  A
C2229      O2234   1.371       .  S
C2230      C2231   1.406       .  A
C2231      C2232   1.402       .  A
C2231      H2235   1.084       .  S
C2232      O2236   1.372       .  S
O2234      H2238   0.992       .  S
O2236      H2237   0.992       .  S
C2239      C2240   1.410       .  A
C2239      C2244   1.409       .  A
C2240      C2241   1.406       .  A
C2240      H2245   1.084       .  S
C2241      C3160   1.408       .  A
C2241      O2246   1.372       .  S
C2242      C3159   1.408   1_545  A
C2242      C2243   1.402       .  A
C2243      C3162   1.403       .  A
C2243      H2247   1.084       .  S
C2244      C3161   1.403       .  A
C2244      O3166   1.372       .  S
O2246      H2250   0.992       .  S
O2248      C3162   1.372       .  S
O2248      H2249   0.992       .  S
C2251      C2252   1.412       .  A
C2251      C2256   1.408       .  A
C2252      C2253   1.399       .  A
C2252      H2257   1.083       .  S
C2253      C2254   1.406       .  A
C2253      O2258   1.372       .  S
C2254      C2255   1.411       .  A
C2255      C2256   1.402       .  A
C2256      O2260   1.372       .  S
O2258      H2262   0.992       .  S
O2260      H2261   0.992       .  S
C2263      C2264   1.413       .  A
C2263      C2268   1.407       .  A
C2264      C2265   1.405       .  A
C2264      H2269   1.083       .  S
C2265      C2266   1.405       .  A
C2265      O2270   1.372       .  S
C2266      C2267   1.408       .  A
C2267      C2268   1.397       .  A
C2267      H2271   1.084       .  S
C2268      O2272   1.372       .  S
O2270      H2274   0.992       .  S
O2272      H2273   0.992       .  S
C2275      C2276   1.414       .  A
C2275      C2280   1.410       .  A
C2276      C2277   1.397       .  A
C2276      H2281   1.083       .  S
C2277      C2278   1.399       .  A
C2277      O2282   1.372       .  S
C2278      C2279   1.407       .  A
C2279      C2280   1.400       .  A
C2279      H2283   1.084       .  S
C2280      O2284   1.372       .  S
O2282      H2286   0.992       .  S
O2284      H2285   0.992       .  S
C2287      C2288   1.404       .  A
C2287      C2292   1.413       .  A
C2288      C2289   1.398       .  A
C2288      H2293   1.084       .  S
C2289      C2290   1.405       .  A
C2289      O3212   1.372   1_545  S
C2290      C2291   1.398       .  A
C2291      C2292   1.399       .  A
C2291      H2295   1.084       .  S
C2292      O2296   1.372       .  S
O2294      C3207   1.372       .  S
O2294      H2298   0.992       .  S
O2296      H2297   0.992       .  S
C2299      C2300   1.402       .  A
C2299      C2304   1.412       .  A
C2300      C2301   1.403       .  A
C2300      H2305   1.084       .  S
C2301      C2302   1.418       .  A
C2301      O2306   1.371       .  S
C2302      C2303   1.404       .  A
C2303      C2304   1.399       .  A
C2303      H2307   1.084       .  S
C2304      O2308   1.373       .  S
O2306      H2310   0.992       .  S
O2308      H2309   0.992       .  S
C2311      C2312   1.408       .  A
C2311      C2316   1.412       .  A
C2312      C2313   1.401       .  A
C2312      H2317   1.084       .  S
C2313      C2314   1.406       .  A
C2313      O2318   1.374   1_545  S
C2314      C2315   1.407       .  A
C2315      C2316   1.396       .  A
C2315      H2319   1.083       .  S
C2316      O2320   1.372       .  S
O2318      H2322   0.991   1_565  S
O2320      H2321   0.991       .  S
C2323      C2324   1.404       .  A
C2323      C2328   1.414       .  A
C2324      H2329   1.084       .  S
C2325      O2330   1.372       .  S
C2326      C2327   1.401       .  A
C2327      C2328   1.401       .  A
C2327      H2331   1.084       .  S
C2328      O2332   1.372       .  S
O2330      H2334   0.992       .  S
O2332      H2333   0.992       .  S
C2335      C2336   1.408       .  A
C2335      C2340   1.412       .  A
C2336      C2337   1.395       .  A
C2336      H2341   1.083       .  S
C2337      C2338   1.411       .  A
C2337      O2342   1.372       .  S
C2338      C2339   1.407       .  A
C2339      C2340   1.403       .  A
C2339      H2343   1.083       .  S
C2340      O2344   1.371       .  S
O2342      H2346   0.992       .  S
O2344      H2345   0.992       .  S
C2347      C2348   1.405       .  A
C2347      C2352   1.417       .  A
C2348      C2349   1.402       .  A
C2348      H2353   1.084       .  S
C2349      C2350   1.413       .  A
C2349      O2354   1.372       .  S
C2350      C2351   1.405       .  A
C2351      C2352   1.403       .  A
C2351      H2355   1.083       .  S
C2352      O2356   1.371       .  S
O2354      H2358   0.992       .  S
O2356      H2357   0.992       .  S
C2359      C2946   1.482       .  S
C2359      C3278   1.409       .  A
C2359      C2364   1.411       .  A
C2360      C3277   1.407   1_545  A
C2360      C2361   1.397       .  A
C2360      H2365   1.084       .  S
C2361      C3280   1.406   1_545  A
C2361      O2366   1.372       .  S
C2362      C3279   1.407       .  A
C2362      C2363   1.404       .  A
C2363      C2364   1.399       .  A
C2363      H2367   1.084       .  S
C2364      O2368   1.371       .  S
O2366      H2370   0.992       .  S
O2368      H2369   0.992       .  S
C2371      C3290   1.405       .  A
C2371      C2376   1.419       .  A
C2372      C3289   1.406   1_565  A
C2372      C2373   1.402       .  A
C2372      H2377   1.083       .  S
C2373      C3292   1.411       .  A
C2373      O2378   1.372       .  S
C2374      C3291   1.411       .  A
C2374      C2375   1.400       .  A
C2375      C2376   1.400       .  A
C2375      H2379   1.084       .  S
C2376      O2380   1.371       .  S
O2378      H2382   0.992       .  S
O2380      H2381   0.992       .  S
C2383      C2384   1.406       .  A
C2383      C2388   1.410       .  A
C2384      C2385   1.400       .  A
C2384      H2389   1.083       .  S
C2385      C2386   1.410       .  A
C2385      O2390   1.373       .  S
C2386      C2387   1.408       .  A
C2387      C2388   1.396       .  A
C2387      H2391   1.084       .  S
C2388      O2392   1.372       .  S
O2390      H2394   0.992       .  S
O2392      H2393   0.991       .  S
C2395      C2396   1.406       .  A
C2395      C2400   1.400   1_655  A
C2396      C2397   1.398   1_655  A
C2396      H2401   1.084       .  S
C2397      C2398   1.406       .  A
C2398      C2399   1.412       .  A
C2399      C2400   1.401       .  A
C2399      H2403   1.082       .  S
C2400      O2404   1.371       .  S
O2402      H2406   0.992       .  S
O2404      H2405   0.992       .  S
C2407      C2408   1.410       .  A
C2407      C2412   1.408       .  A
C2408      C2409   1.401       .  A
C2408      H2413   1.083       .  S
C2409      C2410   1.408       .  A
C2409      O2414   1.371       .  S
C2410      C2411   1.410       .  A
C2411      C2412   1.392       .  A
C2411      H2415   1.083       .  S
C2412      O2416   1.372       .  S
O2414      H2418   0.992       .  S
O2416      H2417   0.992       .  S
C2419      C2420   1.407       .  A
C2419      C2424   1.405       .  A
C2421      O2426   1.372       .  S
C2422      C2423   1.407   1_655  A
C2423      C2424   1.402   1_455  A
C2423      H2427   1.082       .  S
C2424      O2428   1.372   1_655  S
O2426      H2430   0.992       .  S
O2428      H2429   0.992       .  S
C2431      C2432   1.400       .  A
C2431      C2436   1.417       .  A
C2432      C2433   1.403       .  A
C2433      C2434   1.420       .  A
C2434      C2435   1.403       .  A
C2435      C2436   1.398       .  A
C2435      H2439   1.083       .  S
C2436      O2440   1.371       .  S
O2438      H2442   0.993       .  S
O2440      H2441   0.991       .  S
C2443      C2448   1.410       .  A
C2444      C2445   1.403       .  A
C2444      H2449   1.083       .  S
C2445      O2450   1.371       .  S
C2446      C2447   1.407       .  A
C2447      C2448   1.399       .  A
C2447      H2451   1.083       .  S
C2448      O2452   1.372       .  S
O2450      H2454   0.992       .  S
O2452      H2453   0.992       .  S
C2455      C2460   1.408       .  A
C2456      C2457   1.409       .  A
C2456      H2461   1.083       .  S
C2457      O2462   1.371       .  S
C2458      C2459   1.412       .  A
C2459      C2460   1.406       .  A
C2459      H2463   1.084       .  S
C2460      O2464   1.372       .  S
O2462      H2466   0.992       .  S
O2464      H2465   0.992       .  S
C2467      C2468   1.405   1_554  A
C2467      C2472   1.408       .  A
C2468      C2469   1.396       .  A
C2468      H2473   1.084       .  S
C2469      C2470   1.409       .  A
C2469      O2474   1.372       .  S
C2470      C2471   1.409   1_556  A
C2471      C2472   1.394       .  A
C2471      H2475   1.083       .  S
C2472      O2476   1.372       .  S
O2474      H2478   0.991       .  S
O2476      H2477   0.991       .  S
C2479      C2480   1.408       .  A
C2479      C2484   1.405       .  A
C2480      C2481   1.397       .  A
C2480      H2485   1.083       .  S
C2481      C2482   1.403       .  A
C2481      O2486   1.372       .  S
C2482      C2483   1.408       .  A
C2483      C2484   1.397       .  A
C2483      H2487   1.084       .  S
C2484      O2488   1.372       .  S
O2486      H2490   0.992       .  S
O2488      H2489   0.992       .  S
C2491      C2492   1.403       .  A
C2491      C2496   1.411       .  A
C2492      C2493   1.394       .  A
C2492      H2497   1.084       .  S
C2493      C2494   1.412       .  A
C2493      O2498   1.371       .  S
C2494      C2495   1.405       .  A
C2495      C2496   1.403       .  A
C2495      H2499   1.083       .  S
C2496      O2500   1.375       .  S
O2498      H2502   0.992       .  S
O2500      H2501   0.992       .  S
C2503      C2504   1.410       .  A
C2503      C3426   1.406   1_545  A
C2504      C2505   1.400       .  A
C2504      H2509   1.084       .  S
C2505      C2506   1.410   1_545  A
C2505      O2510   1.372       .  S
C2506      C3425   1.414       .  A
C2507      C3424   1.413       .  A
C2507      C2508   1.402       .  A
C2507      H2511   1.084       .  S
C2508      C3421   1.405       .  A
C2508      O2512   1.371       .  S
O2510      H2514   0.992       .  S
O2512      H2513   0.992       .  S
C2515      C2516   1.407       .  A
C2515      C2520   1.411       .  A
C2516      C2517   1.399       .  A
C2516      H2521   1.083       .  S
C2517      C2518   1.410       .  A
C2517      O2522   1.373       .  S
C2518      C2519   1.403       .  A
C2519      C2520   1.391       .  A
C2519      H2523   1.084       .  S
C2520      O2524   1.373       .  S
O2522      H2526   0.992       .  S
O2524      H2525   0.993       .  S
C2527      C2528   1.399       .  A
C2527      C2532   1.409       .  A
C2528      C2529   1.396       .  A
C2528      H2533   1.084       .  S
C2529      C2530   1.411       .  A
C2529      O2534   1.372       .  S
C2530      C2531   1.402       .  A
C2531      C2532   1.399       .  A
C2531      H2535   1.084       .  S
C2532      O2536   1.372       .  S
O2534      H2538   0.992       .  S
O2536      H2537   0.991       .  S
C2539      C2540   1.404       .  A
C2539      C2544   1.403       .  A
C2540      C2541   1.394       .  A
C2540      H3463   1.083       .  S
C2541      C2542   1.409       .  A
C2541      O2546   1.372       .  S
C2542      C2543   1.411       .  A
C2543      C2544   1.402       .  A
C2543      H2547   1.083       .  S
C2544      O2548   1.371       .  S
H2545      C3458   1.080   1_545  S
O2546      H3468   0.992       .  S
O2548      H2549   0.992       .  S
H2550      O3464   0.992   1_545  S
C2551      C2552   1.399       .  A
C2551      C2556   1.415       .  A
C2552      C2553   1.395       .  A
C2552      H2557   1.084       .  S
C2553      C2554   1.413       .  A
C2553      O2558   1.374       .  S
C2554      C2555   1.399       .  A
C2555      C2556   1.402       .  A
C2555      H2559   1.083       .  S
C2556      O2560   1.371       .  S
O2558      H2562   0.992       .  S
O2560      H2561   0.991       .  S
C2563      C2564   1.403       .  A
C2563      C2568   1.407       .  A
C2564      C2565   1.396       .  A
C2564      H2569   1.084       .  S
C2565      C2566   1.408       .  A
C2565      O2570   1.372       .  S
C2566      C2567   1.405       .  A
C2567      C2568   1.403       .  A
C2567      H2571   1.084       .  S
C2568      O2572   1.372       .  S
O2570      H2574   0.992       .  S
O2572      H2573   0.992       .  S
C2575      C2576   1.408       .  A
C2575      C2580   1.400       .  A
C2576      C2577   1.401       .  A
C2576      H2581   1.084       .  S
C2577      C2578   1.405       .  A
C2577      O2582   1.372       .  S
C2578      C2579   1.409       .  A
C2579      C2580   1.395       .  A
C2579      H2583   1.084       .  S
C2580      O2584   1.371       .  S
O2582      H2586   0.992       .  S
O2584      H2585   0.992       .  S
C2587      C2588   1.400       .  A
C2587      C2592   1.410       .  A
C2588      C2589   1.391       .  A
C2588      H2593   1.084       .  S
C2589      C2590   1.413       .  A
C2589      O2594   1.372       .  S
C2590      C2591   1.407       .  A
C2591      C2592   1.407       .  A
C2591      H2595   1.083       .  S
C2592      O2596   1.371       .  S
O2594      H2598   0.992       .  S
O2596      H2597   0.992       .  S
C2599      C2600   1.412       .  A
C2599      C2604   1.408       .  A
C2600      C2601   1.399       .  A
C2600      H2605   1.083       .  S
C2601      C2602   1.401       .  A
C2601      O2606   1.372       .  S
C2602      C2603   1.404       .  A
C2603      C2604   1.398       .  A
C2603      H2607   1.084       .  S
C2604      O2608   1.372       .  S
O2606      H2610   0.992       .  S
O2608      H2609   0.992       .  S
C2611      C3530   1.406       .  A
C2611      C2616   1.411       .  A
C2612      C3529   1.406       .  A
C2612      C2613   1.397       .  A
C2612      H2617   1.083   1_556  S
C2613      C2614   1.411       .  A
C2613      O2618   1.371   1_556  S
C2614      C3533   1.404       .  A
C2615      C3532   1.404       .  A
C2615      C2616   1.402       .  A
C2615      H2619   1.084       .  S
C2616      O2620   1.375       .  S
O2618      H2622   0.991       .  S
O2620      H2621   0.991       .  S
C2623      C2624   1.399       .  A
C2623      C2628   1.413       .  A
C2624      C2625   1.400       .  A
C2624      H2629   1.084       .  S
C2625      C2626   1.414       .  A
C2625      O2630   1.370       .  S
C2626      C2627   1.399       .  A
C2627      C2628   1.397       .  A
C2627      H3549   1.084       .  S
C2628      O2632   1.372       .  S
O2630      H2634   0.992       .  S
H2631      C3545   1.084       .  S
O2632      H3551   0.992       .  S
H2633      O3550   0.992   1_545  S
C2635      C2640   1.408       .  A
C2636      C2637   1.398       .  A
C2636      H2641   1.084       .  S
C2637      C2638   1.412   1_556  A
C2637      O2642   1.374       .  S
C2639      C2640   1.401       .  A
C2639      H2643   1.083       .  S
C2640      O2644   1.374       .  S
O2642      H2646   0.991       .  S
O2644      H2645   0.992       .  S
C2647      C2648   1.401       .  A
C2647      C2652   1.417       .  A
C2648      C2649   1.402       .  A
C2648      H2653   1.084       .  S
C2649      C2650   1.413       .  A
C2649      O2654   1.375       .  S
C2650      C2651   1.400       .  A
C2651      C2652   1.403       .  A
C2651      H2655   1.084       .  S
C2652      O2656   1.371       .  S
O2654      H2658   0.991       .  S
O2656      H2657   0.992       .  S
C2659      C2660   1.405       .  A
C2659      C2664   1.411       .  A
C2660      C2661   1.397       .  A
C2660      H2665   1.083       .  S
C2661      C2662   1.411       .  A
C2661      O2666   1.371       .  S
C2662      C2663   1.404       .  A
C2663      C2664   1.390       .  A
C2663      H2667   1.083       .  S
C2664      O2668   1.373       .  S
O2666      H2670   0.992       .  S
O2668      H2669   0.991       .  S
C2671      C2672   1.404       .  A
C2671      C2676   1.404       .  A
C2672      C2673   1.403       .  A
C2672      H2677   1.082       .  S
C2673      C2674   1.409       .  A
C2673      O2678   1.371       .  S
C2674      C2675   1.408       .  A
C2675      C2676   1.396       .  A
C2675      H3597   1.084   1_545  S
C2676      O3598   1.372   1_545  S
O2678      H2682   0.992       .  S
H2679      C3593   1.084       .  S
O2680      C3594   1.372       .  S
O2680      H2681   0.991       .  S
C2683      C2684   1.409       .  A
C2683      C2688   1.404       .  A
C2684      C2685   1.399       .  A
C2684      H2689   1.084       .  S
C2685      C2686   1.410       .  A
C2685      O2690   1.371       .  S
C2686      C2687   1.408       .  A
C2687      C2688   1.393       .  A
C2687      H2691   1.080       .  S
C2688      O2692   1.371       .  S
O2690      H2694   0.992       .  S
O2692      H2693   0.991       .  S
C2695      C2700   1.411       .  A
C2696      C2697   1.405       .  A
C2696      H2701   1.084       .  S
C2697      O2702   1.371       .  S
C2698      C2699   1.404       .  A
C2699      C2700   1.403       .  A
C2699      H2703   1.084       .  S
C2700      O2704   1.372       .  S
O2702      H2706   0.992       .  S
O2704      H2705   0.992       .  S
C2707      C2708   1.407       .  A
C2707      C2712   1.408       .  A
C2708      C3627   1.401       .  A
C2708      H2713   1.084       .  S
C2709      C3626   1.404       .  A
C2709      C3628   1.410       .  A
C2709      O2714   1.372       .  S
C2710      C2799   1.483       .  S
C2710      C3627   1.409       .  A
C2710      C2711   1.408       .  A
C2711      C2712   1.400       .  A
C2711      H2715   1.084       .  S
C2712      O2716   1.372       .  S
O2714      H2718   0.992       .  S
O2716      H2717   0.992       .  S
C2719      C2720   1.410       .  A
C2720      H2725   1.083       .  S
C2721      C2722   1.404       .  A
C2721      O2726   1.372       .  S
C2722      C2723   1.409       .  A
C2723      C2724   1.399       .  A
C2723      H2727   1.084       .  S
C2724      O2728   1.372       .  S
O2728      H2729   0.992       .  S
C2731      C2732   1.399       .  A
C2731      C2736   1.413       .  A
C2732      C2733   1.403       .  A
C2732      H2737   1.084       .  S
C2733      C2734   1.417       .  A
C2733      O2738   1.371       .  S
C2734      C2735   1.401       .  A
C2735      C2736   1.395       .  A
C2735      H2739   1.084   1_545  S
C2736      O3658   1.372   1_545  S
O2738      H2742   0.992       .  S
O2740      C3654   1.372       .  S
O2740      H2741   0.992       .  S
C2743      C2744   1.410       .  A
C2743      C2748   1.405       .  A
C2744      C2745   1.404       .  A
C2744      H2749   1.084   1_655  S
C2745      C2746   1.410       .  A
C2745      O2750   1.372   1_655  S
C2746      C2747   1.414       .  A
C2747      C2748   1.402       .  A
C2747      H2751   1.083       .  S
C2748      O2752   1.372       .  S
O2750      H2754   0.992       .  S
O2752      H2753   0.992       .  S
O2755     Ni2761   1.923       .  S
O2755      C2776   1.268       .  A
O2756     Ni2779   1.942       .  S
O2756      C2765   1.278       .  A
O2757     Ni2761   1.901       .  S
O2757     Ni2779   1.923       .  S
O2757     Ni2773   1.912       .  S
O2757      H2780   0.966       .  S
C2758      O2775   1.273       .  A
C2758      O2767   1.278       .  A
C2758      C3625   1.483       .  S
O2759     Ni2778   1.926       .  S
O2759      C2765   1.270       .  A
O2760     Ni2778   1.900       .  S
O2760      C2762   1.268       .  A
Ni2761     O2764   1.934       .  S
Ni2761     O2766   1.892       .  S
C2762      O2772   1.278       .  A
C2762      C3640   1.482       .  S
O2763     Ni2779   1.928       .  S
O2763      C2769   1.283       .  A
O2764      C2769   1.278       .  A
C2765      C3097   1.479       .  S
O2766      C2768   1.259       .  A
O2767     Ni2778   1.927       .  S
C2768      O2774   1.279       .  A
C2768      C3652   1.482       .  S
C2769      C3664   1.496       .  S
H2770      O2771   0.966       .  S
O2771     Ni2779   1.921       .  S
O2771     Ni2773   1.907       .  S
O2771     Ni2778   1.906       .  S
O2772     Ni2773   1.939       .  S
Ni2773     O2777   1.924       .  S
Ni2773     O2775   1.908       .  S
O2774     Ni2779   1.958       .  S
C2776      O2777   1.271       .  A
C2776      C3127   1.469       .  S
C2781      C3613   1.485       .  S
C2781      N2786   1.371       .  A
N2782      C2783   1.353       .  A
C2783      C3604   1.481       .  S
C2783      N2784   1.353       .  A
C2785      C3661   1.490       .  S
C2785      N2786   1.369       .  A
C2787      C3589   1.468       .  S
C2787      N2788   1.370       .  A
N2788      C2789   1.363       .  A
C2789      C3649   1.475       .  S
C2789      N2790   1.348       .  A
C2791      C3577   1.477       .  S
C2791      N2792   1.353       .  A
C2793      C3568   1.481       .  S
C2793      N2794   1.361   1_556  A
C2793      N2798   1.358       .  A
N2794      C2795   1.361       .  A
C2795      C3637   1.463       .  S
C2795      N2796   1.352       .  A
N2796      C2797   1.352       .  A
C2797      C3556   1.479       .  S
C2797      N2798   1.356   1_554  A
C2799      N2800   1.359   1_554  A
C2799      N2804   1.361   1_554  A
N2800      C2801   1.358       .  A
C2801      C3529   1.483       .  S
C2801      N2802   1.354       .  A
N2802      C2803   1.354       .  A
C2803      C3544   1.470       .  S
C2803      N2804   1.360       .  A
O2805     Ni2811   1.920       .  S
O2805      C2826   1.271       .  A
O2806     Ni2829   1.932       .  S
O2806      C2815   1.271       .  A
O2807     Ni2811   1.923       .  S
O2807     Ni2829   1.920       .  S
O2807     Ni2823   1.956       .  S
O2807      H2830   0.966       .  S
C2808      O2825   1.283       .  A
C2808      O2817   1.277       .  A
C2808      C3493   1.472       .  S
O2809     Ni2828   1.920       .  S
O2809      C2815   1.266       .  A
O2810     Ni2828   1.894       .  S
O2810      C2812   1.264       .  A
Ni2811     O2814   1.938       .  S
Ni2811     O2816   1.898       .  S
C2812      O2822   1.273       .  A
C2812      C3517   1.481       .  S
O2813     Ni2829   1.895       .  S
O2813      C2819   1.262       .  A
O2814      C2819   1.267       .  A
C2815      C3103   1.468       .  S
O2816      C2818   1.275       .  A
O2817     Ni2828   1.918       .  S
C2818      O2824   1.289       .  A
C2818      C3481   1.481       .  S
C2819      C3505   1.479       .  S
H2820      O2821   0.967       .  S
O2821     Ni2829   1.882       .  S
O2821     Ni2823   1.892       .  S
O2821     Ni2828   1.896       .  S
O2822     Ni2823   1.938       .  S
Ni2823     O2827   1.923       .  S
Ni2823     O2825   1.926       .  S
O2824     Ni2829   1.963       .  S
C2826      O2827   1.271       .  A
C2826      C3109   1.472       .  S
O2831     Ni2837   1.912       .  S
O2831      C2852   1.266       .  A
O2832     Ni2855   1.934       .  S
O2832      C2841   1.275       .  A
O2833     Ni2837   1.893       .  S
O2833     Ni2855   1.905       .  S
O2833     Ni2849   1.911       .  S
O2833      H2856   0.966       .  S
C2834      O2851   1.278       .  A
C2834      O2843   1.274       .  A
C2834      C3541   1.482       .  S
O2835     Ni2854   1.917       .  S
O2835      C2841   1.269       .  A
O2836     Ni2854   1.898       .  S
O2836      C2838   1.266       .  A
Ni2837     O2840   1.898       .  S
Ni2837     O2842   1.914       .  S
C2838      O2848   1.278       .  A
C2838      C3469   1.475       .  S
O2839     Ni2855   1.941       .  S
O2839      C2845   1.282       .  A
O2840      C2845   1.272       .  A
C2841      C3117   1.470       .  S
O2842      C2844   1.269       .  A
O2843     Ni2854   1.922       .  S
C2844      O2850   1.272       .  A
C2844      C3460   1.476       .  S
C2845      C3445   1.464       .  S
H2846      O2847   0.966       .  S
O2847     Ni2855   1.919       .  S
O2847     Ni2849   1.915       .  S
O2847     Ni2854   1.897       .  S
O2848     Ni2849   1.938       .  S
Ni2849     O2853   1.941       .  S
Ni2849     O2851   1.918       .  S
O2850     Ni2855   1.919       .  S
C2852      O2853   1.275       .  A
C2852      C3123   1.472       .  S
C2857      C3448   1.475       .  S
C2857      N2858   1.366       .  A
C2857      N2862   1.355       .  A
N2858      C2859   1.364       .  A
C2859      C3508   1.488       .  S
C2859      N2860   1.353       .  A
N2860      C2861   1.349       .  A
C2861      C3433   1.479       .  S
C2861      N2862   1.352       .  A
C2863      C3421   1.483       .  S
C2863      N2868   1.355       .  A
N2864      C2865   1.367       .  A
C2865      C3457   1.486       .  S
N2866      C2867   1.351       .  A
C2867      C3409   1.483       .  S
C2867      N2868   1.354       .  A
C2869      C3397   1.474       .  S
C2869      N2870   1.360       .  A
C2869      N2874   1.365       .  A
N2870      C2871   1.355       .  A
C2871      C3385   1.478       .  S
C2871      N2872   1.349   1_554  A
N2872      C2873   1.348       .  A
C2873      C3472   1.471       .  S
C2873      N2874   1.358   1_556  A
O2875     Ni2881   1.914       .  S
O2875      C2896   1.268       .  A
O2876     Ni2899   1.932       .  S
O2876      C2885   1.272       .  A
O2877     Ni2881   1.925       .  S
O2877     Ni2893   1.946       .  S
O2877      H2900   0.967       .  S
C2878      O2895   1.281       .  A
C2878      C3352   1.496       .  S
O2879     Ni2898   1.932       .  S
O2879      C2885   1.269       .  A
O2880     Ni2898   1.906       .  S
O2880      C2882   1.266       .  A
Ni2881     O2884   1.932       .  S
Ni2881     O2886   1.901       .  S
C2882      C3616   1.482       .  S
O2883     Ni2899   1.904       .  S
O2883      C2889   1.265   1_655  A
C2885      C3105   1.477       .  S
O2886      C2888   1.269       .  A
O2887     Ni2898   1.930       .  S
C2888      C3373   1.493       .  S
C2889      C3361   1.490   1_455  S
H2890      O2891   0.968       .  S
O2891     Ni2899   1.897       .  S
O2891     Ni2898   1.916       .  S
O2892     Ni2893   1.942       .  S
Ni2893     O2897   1.927       .  S
Ni2893     O2895   1.923       .  S
O2894     Ni2899   1.976       .  S
C2896      O2897   1.271       .  A
C2896      C3111   1.471       .  S
O2901     Ni2907   1.930       .  S
O2901      C2922   1.274       .  A
O2902     Ni2925   1.937       .  S
O2902      C2911   1.272       .  A
O2903     Ni2907   1.906       .  S
O2903     Ni2925   1.914       .  S
O2903     Ni2919   1.922       .  S
O2903      H2926   0.966       .  S
C2904      O2921   1.284       .  A
C2904      O2913   1.275   1_655  A
C2904      C3313   1.472   1_655  S
O2905     Ni2924   1.919       .  S
O2905      C2911   1.267       .  A
O2906     Ni2924   1.905       .  S
O2906      C2908   1.268       .  A
Ni2907     O2910   1.923       .  S
Ni2907     O2912   1.911       .  S
C2908      O2918   1.271       .  A
C2908      C3400   1.478       .  S
O2909     Ni2925   1.908       .  S
O2909      C2915   1.274       .  A
O2910      C2915   1.274       .  A
C2911      C3099   1.473       .  S
O2912      C2914   1.273       .  A
O2913     Ni2924   1.906   1_455  S
C2914      O2920   1.276       .  A
C2914      C3337   1.479       .  S
C2915      C3325   1.483       .  S
H2916      O2917   0.966       .  S
O2917     Ni2925   1.908       .  S
O2917     Ni2919   1.904       .  S
O2917     Ni2924   1.894       .  S
O2918     Ni2919   1.919       .  S
Ni2919     O2923   1.933       .  S
Ni2919     O2921   1.943       .  S
O2920     Ni2925   1.934       .  S
C2922      O2923   1.275       .  A
C2922      C3131   1.478       .  S
C2927      C3328   1.476       .  S
C2927      N2928   1.361       .  A
C2927      N2932   1.350       .  A
N2928      C2929   1.364       .  A
C2929      C3520   1.466       .  S
C2929      N2930   1.358       .  A
N2930      C2931   1.356       .  A
C2931      C3580   1.480       .  S
C2931      N2932   1.351       .  A
C2933      C3349   1.492       .  S
C2933      N2934   1.354       .  A
N2934      C2935   1.356       .  A
C2935      C3304   1.484       .  S
C2935      N2936   1.357       .  A
N2936      C2937   1.358       .  A
O2939     Ni2945   1.918       .  S
O2939      C2960   1.268       .  A
O2940     Ni2963   1.931       .  S
O2940      C2949   1.268       .  A
O2941     Ni2945   1.923       .  S
O2941     Ni2957   1.953       .  S
O2941      H2964   0.965       .  S
C2942      O2959   1.280       .  A
C2942      C3424   1.486       .  S
O2943     Ni2962   1.921       .  S
O2943      C2949   1.264       .  A
O2944     Ni2962   1.899       .  S
Ni2945     O2948   1.926       .  S
Ni2945     O2950   1.904       .  S
C2946      O2956   1.272       .  A
O2947     Ni2963   1.914       .  S
O2947      C2953   1.271   1_565  A
C2949      C3113   1.470       .  S
O2950      C2952   1.273       .  A
O2951     Ni2962   1.924       .  S
C2952      C3592   1.480       .  S
C2953      C3289   1.493       .  S
H2954      O2955   0.967       .  S
O2955     Ni2963   1.907       .  S
O2955     Ni2962   1.921       .  S
O2956     Ni2957   1.929       .  S
Ni2957     O2961   1.929       .  S
Ni2957     O2959   1.921       .  S
O2958     Ni2963   1.938       .  S
C2960      O2961   1.270       .  A
C2960      C3107   1.477       .  S
O2965     Ni2971   1.941       .  S
O2965      C2986   1.274       .  A
O2966     Ni2989   1.930       .  S
O2966      C2975   1.274       .  A
O2967     Ni2971   1.904       .  S
O2967     Ni2989   1.894       .  S
O2967     Ni2983   1.899       .  S
O2967      H2990   0.966       .  S
C2968      O2985   1.269       .  A
C2968      O2977   1.273       .  A
C2968      C3256   1.490       .  S
O2969     Ni2988   1.931       .  S
O2969      C2975   1.273       .  A
O2970     Ni2988   1.908       .  S
O2970      C2972   1.273       .  A
Ni2971     O2974   1.925       .  S
Ni2971     O2976   1.912       .  S
C2972      O2982   1.279       .  A
C2972      C3241   1.479       .  S
O2973     Ni2989   1.924       .  S
O2973      C2979   1.283       .  A
O2974      C2979   1.280       .  A
C2975      C3125   1.478       .  S
O2976      C2978   1.269       .  A
O2977     Ni2988   1.935       .  S
C2978      O2984   1.275       .  A
C2978      C3265   1.491       .  S
C2979      C3565   1.486       .  S
H2980      O2981   0.966       .  S
O2981     Ni2989   1.930       .  S
O2981     Ni2983   1.912       .  S
O2981     Ni2988   1.918       .  S
O2982     Ni2983   1.943       .  S
Ni2983     O2987   1.917       .  S
Ni2983     O2985   1.903       .  S
O2984     Ni2989   1.925       .  S
C2986      O2987   1.267       .  A
C2986      C3119   1.472       .  S
C2991      C3253   1.489       .  S
C2991      N2992   1.359       .  A
C2991      N2996   1.363       .  A
N2992      C2993   1.357       .  A
C2993      C3229   1.484       .  S
C2993      N2994   1.353       .  A
N2994      C2995   1.354       .  A
C2995      C3484   1.476       .  S
C2995      N2996   1.362       .  A
C2997      C3364   1.487       .  S
C2997      N2998   1.357       .  A
N2998      C2999   1.356       .  A
C2999      C3412   1.482       .  S
C2999      N3000   1.357       .  A
N3000      C3001   1.357       .  A
O3003     Ni3009   1.933       .  S
O3003      C3024   1.268       .  A
O3004     Ni3027   1.955       .  S
O3004      C3013   1.279       .  A
O3005     Ni3009   1.916       .  S
O3005     Ni3027   1.925       .  S
O3005     Ni3021   1.916       .  S
O3005      H3028   0.966       .  S
C3006      O3023   1.273       .  A
C3006      O3015   1.265       .  A
C3006      C3220   1.484       .  S
O3007     Ni3026   1.906       .  S
O3007      C3013   1.265       .  A
O3008     Ni3026   1.910       .  S
O3008      C3010   1.274       .  A
Ni3009     O3012   1.923       .  S
Ni3009     O3014   1.889       .  S
C3010      O3020   1.278       .  A
C3010      C3205   1.472       .  S
O3011     Ni3027   1.930       .  S
O3011      C3017   1.280       .  A
O3012      C3017   1.275       .  A
C3013      C3129   1.487       .  S
O3014      C3016   1.267       .  A
O3015     Ni3026   1.912       .  S
C3016      O3022   1.277       .  A
C3016      C3196   1.471       .  S
C3017      C3181   1.499       .  S
H3018      O3019   0.966       .  S
O3019     Ni3027   1.944       .  S
O3019     Ni3021   1.933       .  S
O3019     Ni3026   1.925       .  S
O3020     Ni3021   1.939       .  S
Ni3021     O3025   1.943       .  S
Ni3021     O3023   1.921       .  S
O3022     Ni3027   1.934       .  S
C3024      O3025   1.274       .  A
C3024      C3101   1.487       .  S
C3029      C3217   1.490       .  S
C3029      N3030   1.357       .  A
C3029      N3034   1.366       .  A
N3030      C3031   1.356       .  A
C3031      C3601   1.483       .  S
C3031      N3032   1.351       .  A
N3032      C3033   1.353       .  A
C3033      C3496   1.479       .  S
C3033      N3034   1.365       .  A
C3035      C3292   1.484       .  S
C3035      N3040   1.358       .  A
N3036      C3037   1.362       .  A
C3037      C3208   1.476       .  S
N3038      C3039   1.356       .  A
C3039      C3301   1.483       .  S
C3039      N3040   1.360       .  A
C3041      C3268   1.490       .  S
C3041      N3042   1.363       .  A
C3041      N3046   1.367       .  A
N3042      C3043   1.357       .  A
C3043      C3388   1.482       .  S
C3043      N3044   1.346   1_556  A
N3044      C3045   1.348       .  A
C3045      C3193   1.475       .  S
C3045      N3046   1.364   1_554  A
O3047     Ni3053   1.923       .  S
O3047      C3068   1.269       .  A
O3048     Ni3071   1.927       .  S
O3048      C3057   1.271       .  A
O3049     Ni3053   1.917       .  S
O3049     Ni3071   1.917       .  S
O3049     Ni3065   1.918       .  S
O3049      H3072   0.966       .  S
C3050      O3067   1.268       .  A
C3050      O3059   1.267       .  A
C3050      C3169   1.490       .  S
O3051     Ni3070   1.903       .  S
O3051      C3057   1.265       .  A
O3052     Ni3070   1.897       .  S
O3052      C3054   1.269       .  A
Ni3053     O3056   1.918       .  S
Ni3053     O3058   1.903       .  S
C3054      O3064   1.284       .  A
C3054      C3157   1.484       .  S
O3055     Ni3071   1.920       .  S
O3055      C3061   1.275       .  A
O3056      C3061   1.270       .  A
C3057      C3115   1.466       .  S
O3058      C3060   1.271       .  A
O3059     Ni3070   1.925       .  S
C3060      O3066   1.281       .  A
C3060      C3145   1.499       .  S
C3061      C3136   1.493       .  S
H3062      O3063   0.966       .  S
O3063     Ni3071   1.944       .  S
O3063     Ni3065   1.922       .  S
O3063     Ni3070   1.925       .  S
O3064     Ni3065   1.964       .  S
Ni3065     O3069   1.918       .  S
Ni3065     O3067   1.914       .  S
O3066     Ni3071   1.960       .  S
C3068      O3069   1.268       .  A
C3068      C3121   1.468       .  S
C3073      C3376   1.483       .  S
C3073      N3078   1.369       .  A
N3074      C3075   1.348       .  A
C3075      C3436   1.476       .  S
N3076      C3077   1.355       .  A
C3077      C3148   1.477       .  S
C3077      N3078   1.372       .  A
C3079      C3280   1.469       .  S
C3079      N3084   1.361       .  A
N3080      C3081   1.354       .  A
C3081      C3232   1.479       .  S
C3081      N3082   1.355       .  A
C3083      C3133   1.491       .  S
C3083      N3084   1.363       .  A
C3085      N3086   1.362   1_556  A
C3085      N3090   1.352       .  A
N3086      C3087   1.365       .  A
C3087      C3316   1.483       .  S
C3087      N3088   1.359       .  A
N3088      C3089   1.354       .  A
C3089      C3553   1.484       .  S
C3089      N3090   1.353   1_554  A
C3091      C3184   1.489   1_556  S
C3091      N3092   1.355       .  A
C3091      N3096   1.368       .  A
N3092      C3093   1.354       .  A
C3093      C3532   1.482       .  S
C3093      N3094   1.355       .  A
N3094      C3095   1.357       .  A
C3095      C3160   1.481       .  S
C3095      N3096   1.370       .  A
N3098      C3099   1.361       .  A
C3101      N3102   1.370       .  A
C3103      N3104   1.362       .  A
C3103      N3108   1.360       .  A
N3104      C3105   1.360       .  A
C3105      N3106   1.364       .  A
N3106      C3107   1.362       .  A
C3107      N3108   1.360       .  A
C3109      N3110   1.360       .  A
C3109      N3114   1.361       .  A
N3110      C3111   1.360       .  A
C3111      N3112   1.361       .  A
N3112      C3113   1.361       .  A
C3113      N3114   1.361       .  A
N3116      C3117   1.359       .  A
C3119      N3120   1.361       .  A
C3121      N3122   1.360       .  A
C3121      N3126   1.361       .  A
N3122      C3123   1.359       .  A
C3123      N3124   1.364       .  A
N3124      C3125   1.362       .  A
C3125      N3126   1.360       .  A
C3127      N3128   1.366       .  A
C3127      N3132   1.359       .  A
N3128      C3129   1.363       .  A
C3129      N3130   1.366       .  A
N3130      C3131   1.364       .  A
C3131      N3132   1.357       .  A
C3133      C3134   1.402       .  A
C3133      C3138   1.415   1_565  A
C3134      C3135   1.401       .  A
C3134      H3139   1.083       .  S
C3135      C3136   1.419       .  A
C3135      O3140   1.373       .  S
C3136      C3137   1.405   1_565  A
C3137      C3138   1.403       .  A
O3140      H3144   0.993       .  S
O3142      H3143   0.992       .  S
C3145      C3146   1.413       .  A
C3145      C3150   1.414       .  A
C3146      C3147   1.403       .  A
C3146      H3151   1.083       .  S
C3147      C3148   1.402       .  A
C3147      O3152   1.371       .  S
C3148      C3149   1.406       .  A
C3149      C3150   1.407       .  A
C3149      H3153   1.084       .  S
C3150      O3154   1.371       .  S
O3152      H3156   0.992       .  S
O3154      H3155   0.992       .  S
C3157      C3158   1.406       .  A
C3157      C3162   1.413   1_565  A
C3158      C3159   1.402       .  A
C3158      H3163   1.084       .  S
C3159      O3164   1.372       .  S
C3160      C3161   1.405       .  A
C3161      H3165   1.084       .  S
O3164      H3168   0.992       .  S
O3166      H3167   0.992       .  S
C3169      C3170   1.411       .  A
C3169      C3174   1.409       .  A
C3170      C3171   1.405       .  A
C3170      H3175   1.083       .  S
C3171      C3172   1.409       .  A
C3171      O3176   1.370       .  S
C3172      C3173   1.411       .  A
C3173      C3174   1.399       .  A
C3174      O3178   1.372       .  S
O3176      H3180   0.992       .  S
O3178      H3179   0.992       .  S
C3181      C3182   1.415       .  A
C3181      C3186   1.411       .  A
C3182      C3183   1.406       .  A
C3182      H3187   1.083       .  S
C3183      C3184   1.405       .  A
C3183      O3188   1.372       .  S
C3184      C3185   1.410       .  A
C3185      C3186   1.403       .  A
C3185      H3189   1.084       .  S
C3186      O3190   1.371       .  S
O3188      H3192   0.992       .  S
O3190      H3191   0.992       .  S
C3193      C3194   1.411       .  A
C3193      C3198   1.403       .  A
C3194      C3195   1.394       .  A
C3194      H3199   1.084       .  S
C3195      C3196   1.402       .  A
C3195      O3200   1.372       .  S
C3196      C3197   1.410       .  A
C3197      C3198   1.400       .  A
C3197      H3201   1.084       .  S
C3198      O3202   1.371       .  S
O3200      H3204   0.992       .  S
O3202      H3203   0.992       .  S
C3205      C3206   1.405       .  A
C3205      C3210   1.406       .  A
C3206      C3207   1.397       .  A
C3206      H3211   1.084       .  S
C3207      C3208   1.408       .  A
C3208      C3209   1.407       .  A
C3209      C3210   1.402       .  A
C3209      H3213   1.084       .  S
C3210      O3214   1.371       .  S
O3212      H3216   0.992       .  S
O3214      H3215   0.992       .  S
C3217      C3218   1.403       .  A
C3217      C3222   1.418       .  A
C3218      C3219   1.403       .  A
C3218      H3223   1.084       .  S
C3219      C3220   1.417       .  A
C3219      O3224   1.372       .  S
C3220      C3221   1.398       .  A
C3221      C3222   1.399       .  A
C3221      H3225   1.084       .  S
C3222      O3226   1.371       .  S
O3224      H3228   0.992       .  S
O3226      H3227   0.992       .  S
C3229      C3230   1.407       .  A
C3229      C3234   1.414       .  A
C3230      C3231   1.403       .  A
C3230      H3235   1.083       .  S
C3231      C3232   1.407       .  A
C3231      O3236   1.375       .  S
C3232      C3233   1.403       .  A
C3233      C3234   1.395       .  A
C3233      H3237   1.084       .  S
C3234      O3238   1.371       .  S
O3236      H3240   0.991       .  S
O3238      H3239   0.991       .  S
C3241      C3242   1.403       .  A
C3241      C3246   1.412       .  A
C3242      H3247   1.084       .  S
C3243      O3248   1.372       .  S
C3244      C3245   1.403       .  A
C3245      C3246   1.402       .  A
C3245      H3249   1.084       .  S
C3246      O3250   1.372       .  S
O3248      H3252   0.992       .  S
O3250      H3251   0.992       .  S
C3253      C3254   1.408       .  A
C3253      C3258   1.410       .  A
C3254      C3255   1.398       .  A
C3254      H3259   1.083       .  S
C3255      C3256   1.412       .  A
C3255      O3260   1.372       .  S
C3256      C3257   1.410       .  A
C3257      C3258   1.403       .  A
C3257      H3261   1.083       .  S
C3258      O3262   1.371       .  S
O3260      H3264   0.992       .  S
O3262      H3263   0.992       .  S
C3265      C3266   1.402       .  A
C3265      C3270   1.418       .  A
C3266      C3267   1.400       .  A
C3266      H3271   1.084       .  S
C3267      C3268   1.412       .  A
C3267      O3272   1.371       .  S
C3268      C3269   1.404       .  A
C3269      C3270   1.406       .  A
C3269      H3273   1.084       .  S
C3270      O3274   1.371       .  S
O3272      H3276   0.992       .  S
O3274      H3275   0.992       .  S
C3277      C3282   1.411       .  A
C3278      C3279   1.400       .  A
C3278      H3283   1.084       .  S
C3279      O3284   1.372       .  S
C3280      C3281   1.403       .  A
C3281      C3282   1.400       .  A
C3281      H3285   1.084       .  S
C3282      O3286   1.372       .  S
O3284      H3288   0.992       .  S
O3286      H3287   0.992       .  S
C3289      C3294   1.419       .  A
C3290      C3291   1.402       .  A
C3290      H3295   1.083       .  S
C3291      O3296   1.372       .  S
C3292      C3293   1.401   1_565  A
C3293      C3294   1.401       .  A
C3293      H3297   1.084       .  S
C3294      O3298   1.372       .  S
O3296      H3300   0.992       .  S
O3298      H3299   0.992       .  S
C3301      C3302   1.407       .  A
C3301      C3306   1.409       .  A
C3302      C3303   1.400       .  A
C3302      H3307   1.083       .  S
C3303      C3304   1.411       .  A
C3303      O3308   1.373       .  S
C3304      C3305   1.407       .  A
C3305      C3306   1.396       .  A
C3305      H3309   1.084       .  S
C3306      O3310   1.371       .  S
O3308      H3312   0.992       .  S
O3310      H3311   0.991       .  S
C3313      C3314   1.403   1_455  A
C3313      C3318   1.406       .  A
C3314      C3315   1.402   1_655  A
C3314      H3319   1.084       .  S
C3315      C3316   1.412       .  A
C3316      C3317   1.407       .  A
C3317      C3318   1.398       .  A
C3317      H3321   1.084       .  S
C3318      O3322   1.372       .  S
O3320      H3324   0.992       .  S
O3322      H3323   0.992       .  S
C3325      C3326   1.413       .  A
C3325      C3330   1.408       .  A
C3326      C3327   1.400       .  A
C3326      H3331   1.083       .  S
C3327      C3328   1.403       .  A
C3327      O3332   1.372       .  S
C3328      C3329   1.408       .  A
C3329      C3330   1.395       .  A
C3329      H3333   1.084       .  S
C3330      O3334   1.372       .  S
O3332      H3336   0.992       .  S
O3334      H3335   0.992       .  S
C3337      C3338   1.402   1_655  A
C3337      C3342   1.413       .  A
C3339      O3344   1.371       .  S
C3340      C3341   1.402   1_455  A
C3341      C3342   1.404       .  A
C3341      H3345   1.084       .  S
C3342      O3346   1.371       .  S
O3344      H3348   0.991       .  S
O3346      H3347   0.992       .  S
C3349      C3350   1.402       .  A
C3349      C3354   1.417       .  A
C3350      C3351   1.404       .  A
C3351      C3352   1.420       .  A
C3352      C3353   1.405       .  A
C3353      C3354   1.400       .  A
C3353      H3357   1.083       .  S
C3354      O3358   1.372       .  S
O3356      H3360   0.992       .  S
O3358      H3359   0.992       .  S
C3361      C3366   1.411       .  A
C3362      C3363   1.406       .  A
C3362      H3367   1.083       .  S
C3363      O3368   1.371       .  S
C3364      C3365   1.407       .  A
C3365      C3366   1.400       .  A
C3365      H3369   1.083       .  S
C3366      O3370   1.372       .  S
O3368      H3372   0.992       .  S
O3370      H3371   0.992       .  S
C3373      C3378   1.408       .  A
C3374      C3375   1.410       .  A
C3374      H3379   1.083       .  S
C3375      O3380   1.372       .  S
C3376      C3377   1.409       .  A
C3377      C3378   1.403       .  A
C3377      H3381   1.084       .  S
C3378      O3382   1.373       .  S
O3380      H3384   0.992       .  S
O3382      H3383   0.992       .  S
C3385      C3386   1.406   1_554  A
C3385      C3390   1.406       .  A
C3386      C3387   1.396       .  A
C3386      H3391   1.084       .  S
C3387      C3388   1.408       .  A
C3387      O3392   1.372       .  S
C3388      C3389   1.411   1_556  A
C3389      C3390   1.394       .  A
C3389      H3393   1.083       .  S
C3390      O3394   1.371       .  S
O3392      H3396   0.992       .  S
O3394      H3395   0.991       .  S
C3397      C3398   1.406       .  A
C3397      C3402   1.405       .  A
C3398      C3399   1.398       .  A
C3398      H3403   1.084       .  S
C3399      C3400   1.409       .  A
C3399      O3404   1.372       .  S
C3400      C3401   1.407       .  A
C3401      C3402   1.396       .  A
C3401      H3405   1.083       .  S
C3402      O3406   1.372       .  S
O3404      H3408   0.992       .  S
O3406      H3407   0.992       .  S
C3409      C3410   1.404       .  A
C3409      C3414   1.411       .  A
C3410      C3411   1.396       .  A
C3410      H3415   1.084       .  S
C3411      C3412   1.411       .  A
C3411      O3416   1.372       .  S
C3412      C3413   1.405       .  A
C3413      C3414   1.401       .  A
C3413      H3417   1.083       .  S
C3414      O3418   1.374       .  S
O3416      H3420   0.992       .  S
O3418      H3419   0.992       .  S
C3421      C3422   1.409       .  A
C3422      C3423   1.398       .  A
C3422      H3427   1.084       .  S
C3423      C3424   1.409       .  A
C3423      O3428   1.372       .  S
C3425      C3426   1.405       .  A
C3425      H3429   1.083       .  S
C3426      O3430   1.371       .  S
O3428      H3432   0.992       .  S
O3430      H3431   0.992       .  S
C3433      C3434   1.405       .  A
C3433      C3438   1.413       .  A
C3434      C3435   1.399       .  A
C3434      H3439   1.084       .  S
C3435      C3436   1.410       .  A
C3435      O3440   1.373       .  S
C3436      C3437   1.402       .  A
C3437      C3438   1.391       .  A
C3437      H3441   1.084       .  S
C3438      O3442   1.372       .  S
O3440      H3444   0.992       .  S
O3442      H3443   0.993       .  S
C3445      C3446   1.399       .  A
C3445      C3450   1.408       .  A
C3446      C3447   1.397       .  A
C3446      H3451   1.084       .  S
C3447      C3448   1.411       .  A
C3447      O3452   1.372       .  S
C3448      C3449   1.403       .  A
C3449      C3450   1.401       .  A
C3449      H3453   1.084       .  S
C3450      O3454   1.372       .  S
O3452      H3456   0.992       .  S
O3454      H3455   0.991       .  S
C3457      C3458   1.409       .  A
C3457      C3462   1.409       .  A
C3458      C3459   1.393       .  A
C3459      C3460   1.403       .  A
C3459      O3464   1.372       .  S
C3460      C3461   1.408       .  A
C3461      C3462   1.404       .  A
C3461      H3465   1.084       .  S
C3462      O3466   1.371       .  S
O3466      H3467   0.992       .  S
C3469      C3470   1.399       .  A
C3469      C3474   1.416       .  A
C3470      C3471   1.395       .  A
C3470      H3475   1.084       .  S
C3471      C3472   1.412       .  A
C3471      O3476   1.374       .  S
C3472      C3473   1.398       .  A
C3473      C3474   1.402       .  A
C3473      H3477   1.084       .  S
C3474      O3478   1.371       .  S
O3476      H3480   0.992       .  S
O3478      H3479   0.992       .  S
C3481      C3482   1.411       .  A
C3481      C3486   1.406       .  A
C3482      C3483   1.402       .  A
C3482      H3487   1.083       .  S
C3483      C3484   1.404       .  A
C3483      O3488   1.372       .  S
C3484      C3485   1.407       .  A
C3485      C3486   1.398       .  A
C3485      H3489   1.084       .  S
C3486      O3490   1.371       .  S
O3488      H3492   0.992       .  S
O3490      H3491   0.992       .  S
C3493      C3494   1.410       .  A
C3493      C3498   1.401       .  A
C3494      C3495   1.399       .  A
C3494      H3499   1.084       .  S
C3495      C3496   1.404       .  A
C3495      O3500   1.371       .  S
C3496      C3497   1.412       .  A
C3497      C3498   1.397       .  A
C3497      H3501   1.084       .  S
C3498      O3502   1.371       .  S
O3500      H3504   0.992       .  S
O3502      H3503   0.992       .  S
C3505      C3506   1.400       .  A
C3505      C3510   1.411       .  A
C3506      C3507   1.390       .  A
C3506      H3511   1.084       .  S
C3507      C3508   1.415       .  A
C3507      O3512   1.372       .  S
C3508      C3509   1.408       .  A
C3509      C3510   1.408       .  A
C3509      H3513   1.083       .  S
C3510      O3514   1.371       .  S
O3512      H3516   0.992       .  S
O3514      H3515   0.992       .  S
C3517      C3518   1.408       .  A
C3517      C3522   1.414       .  A
C3518      C3519   1.399       .  A
C3518      H3523   1.083       .  S
C3519      C3520   1.403       .  A
C3519      O3524   1.372       .  S
C3520      C3521   1.400       .  A
C3521      C3522   1.400       .  A
C3521      H3525   1.084       .  S
C3522      O3526   1.372       .  S
O3524      H3528   0.992       .  S
O3526      H3527   0.992       .  S
C3529      C3534   1.414       .  A
C3530      C3531   1.396       .  A
C3530      H3535   1.084   1_556  S
C3531      C3532   1.410       .  A
C3531      O3536   1.371   1_556  S
C3533      C3534   1.400       .  A
C3533      H3537   1.084       .  S
C3534      O3538   1.373       .  S
O3536      H3540   0.991       .  S
O3538      H3539   0.992       .  S
C3541      C3542   1.402       .  A
C3541      C3546   1.418       .  A
C3542      C3543   1.400       .  A
C3542      H3547   1.083       .  S
C3543      C3544   1.410   1_565  A
C3543      O3548   1.372   1_565  S
C3544      C3545   1.396       .  A
C3545      C3546   1.397   1_545  A
C3546      O3550   1.372       .  S
O3548      H3552   0.992   1_545  S
C3553      C3558   1.408       .  A
C3554      C3555   1.400       .  A
C3554      H3559   1.084       .  S
C3555      C3556   1.410   1_556  A
C3555      O3560   1.374       .  S
C3557      C3558   1.402       .  A
C3557      H3561   1.083       .  S
C3558      O3562   1.374       .  S
O3560      H3564   0.991       .  S
O3562      H3563   0.992       .  S
C3565      C3566   1.403       .  A
C3565      C3570   1.416       .  A
C3566      C3567   1.399       .  A
C3566      H3571   1.084       .  S
C3567      C3568   1.410       .  A
C3567      O3572   1.374       .  S
C3568      C3569   1.402       .  A
C3569      C3570   1.404       .  A
C3569      H3573   1.084       .  S
C3570      O3574   1.372       .  S
O3572      H3576   0.991       .  S
O3574      H3575   0.991       .  S
C3577      C3578   1.407   1_545  A
C3577      C3582   1.412   1_545  A
C3578      C3579   1.398       .  A
C3578      H3583   1.083   1_565  S
C3579      C3580   1.408       .  A
C3579      O3584   1.370       .  S
C3580      C3581   1.406       .  A
C3581      C3582   1.391       .  A
C3581      H3585   1.084       .  S
C3582      O3586   1.373   1_565  S
O3584      H3588   0.992       .  S
O3586      H3587   0.990       .  S
C3589      C3590   1.406       .  A
C3589      C3594   1.403       .  A
C3590      C3591   1.405       .  A
C3590      H3595   1.084       .  S
C3591      C3592   1.411       .  A
C3591      O3596   1.372       .  S
C3592      C3593   1.407       .  A
C3593      C3594   1.394       .  A
O3596      H3600   0.992       .  S
O3598      H3599   0.992   1_565  S
C3601      C3602   1.408       .  A
C3601      C3606   1.405       .  A
C3602      C3603   1.398       .  A
C3602      H3607   1.084       .  S
C3603      C3604   1.412       .  A
C3603      O3608   1.371       .  S
C3604      C3605   1.407       .  A
C3605      C3606   1.393       .  A
C3605      H3609   1.080       .  S
C3606      O3610   1.370       .  S
O3608      H3612   0.992       .  S
O3610      H3611   0.991       .  S
C3613      C3618   1.414       .  A
C3614      C3615   1.402       .  A
C3614      H3619   1.084       .  S
C3615      O3620   1.371       .  S
C3616      C3617   1.402       .  A
C3617      C3618   1.405       .  A
C3617      H3621   1.084       .  S
C3618      O3622   1.372       .  S
O3620      H3624   0.992       .  S
O3622      H3623   0.992       .  S
C3625      C3626   1.408       .  A
C3625      C3630   1.411       .  A
C3626      H3631   1.083       .  S
C3627      O3632   1.372       .  S
C3628      C3629   1.406       .  A
C3629      C3630   1.396       .  A
C3629      H3633   1.084       .  S
C3630      O3634   1.372       .  S
O3632      H3636   0.992       .  S
O3634      H3635   0.991       .  S
C3637      C3638   1.404       .  A
C3638      H3643   1.084       .  S
C3639      C3640   1.405       .  A
C3639      O3644   1.371   1_655  S
C3640      C3641   1.410       .  A
C3641      C3642   1.400       .  A
C3641      H3645   1.084       .  S
C3642      O3646   1.372       .  S
O3646      H3647   0.992       .  S
C3649      C3650   1.397       .  A
C3649      C3654   1.414       .  A
C3650      C3651   1.403       .  A
C3650      H3655   1.084       .  S
C3651      C3652   1.421       .  A
C3651      O3656   1.371       .  S
C3652      C3653   1.398       .  A
C3653      C3654   1.397       .  A
C3653      H3657   1.084       .  S
O3656      H3660   0.992       .  S
O3658      H3659   0.991       .  S
C3661      C3662   1.411       .  A
C3661      C3666   1.405       .  A
C3662      C3663   1.401       .  A
C3662      H3667   1.084   1_655  S
C3663      C3664   1.408       .  A
C3663      O3668   1.371   1_655  S
C3664      C3665   1.416       .  A
C3665      C3666   1.405       .  A
C3665      H3669   1.083       .  S
C3666      O3670   1.371       .  S
O3668      H3672   0.992       .  S
O3670      H3671   0.991       .  S
