geometry optimzed in LAMMPS
_audit_creation_date              2020-12-01 
_audit_creation_method            'lammps2cif' 
_symmetry_space_group_name_H-M    'P1' 
_symmetry_Int_Tables_number       1 
_symmetry_cell_setting            triclinic 
loop_ 
_symmetry_equiv_pos_as_xyz 
  x,y,z 
_cell_length_a                    35.95055526 
_cell_length_b                    35.95499426332654 
_cell_length_c                    34.08537366732984 
_cell_angle_alpha                 100.40156979306266 
_cell_angle_beta                  79.52655360747845 
_cell_angle_gamma                 122.41428487262468 
loop_ 
_atom_site_label 
_atom_site_type_symbol 
_atom_site_fract_x 
_atom_site_fract_y 
_atom_site_fract_z 
_atom_site_charge 
C1          C  0.35354697  0.14209893  0.96938384     0.81300
N2          N  0.30892073  0.11877504  0.96838936    -0.77000
C3          C  0.28755596  0.14016490  0.96703760     0.83800
N4          N  0.31089586  0.18472292  0.96612073    -0.76900
C5          C  0.35544526  0.20808498  0.96712633     0.83900
N6          N  0.37685091  0.18673448  0.96847632    -0.78700
C7          C  0.35355406  0.14202379  0.46934628     0.81300
N8          N  0.37686129  0.18665976  0.46843794    -0.77000
C9          C  0.35545737  0.20801285  0.46709013     0.83800
N10         N  0.31090830  0.18465377  0.46608747    -0.76900
C11         C  0.28756587  0.14009620  0.46700470     0.83900
N12         N  0.30892777  0.11870306  0.46835440    -0.78700
C13         C  0.14526142  0.35056945  0.83917434     0.81300
N14         N  0.12195119  0.30593428  0.84008782    -0.77000
C15         C  0.14335299  0.28457757  0.84142936     0.83800
N16         N  0.18790389  0.30793269  0.84242067    -0.76900
C17         C  0.21124940  0.35248970  0.84149783     0.83900
N18         N  0.18988927  0.37388619  0.84015464    -0.78700
C19         C  0.14521442  0.35049284  0.33915515     0.81300
N20         N  0.18983938  0.37382019  0.34015858    -0.77000
C21         C  0.21120583  0.35243331  0.34151561     0.83800
N22         N  0.18786863  0.30787485  0.34242817    -0.76900
C23         C  0.14332062  0.28450926  0.34141367     0.83900
N24         N  0.12191298  0.30585665  0.34005865    -0.78700
N25         N  0.47041900  0.48720889  0.00259953    -0.05000
N26         N  0.46071814  0.47024361  0.03693975    -0.57100
N27         N  0.46973439  0.06393041  0.96011275    -0.04700
N28         N  0.46314315  0.09720846  0.96355721    -0.59300
N29         N  0.43172469  0.02593298  0.96014762    -0.04300
N30         N  0.39843814  0.03252571  0.96361637    -0.57100
N31         N  0.00844085  0.02520927  0.00256476    -0.04000
N32         N  0.02539376  0.03489526  0.03687676    -0.59600
C33         C  0.99544811  0.50017855  0.05773206     0.97100
C34         C  0.41862015  0.07703595  0.96586528     0.96900
N35         N  0.07020818  0.09283968  0.86582976    -0.05200
N36         N  0.08670766  0.12383671  0.84118570    -0.57700
N37         N  0.09588289  0.06707723  0.94257551    -0.03300
N38         N  0.12684335  0.08352623  0.96719695    -0.59000
N39         N  0.10900367  0.05381889  0.90716440    -0.05200
N40         N  0.14901038  0.06081294  0.90696454    -0.58000
N41         N  0.05690211  0.10590936  0.90124316    -0.03000
N42         N  0.06391085  0.14591239  0.90142188    -0.59100
Mn43       Mn  0.03323131  0.06653558  0.95249909     1.18400
C44         C  0.08195607  0.15634624  0.86374312     0.99200
C45         C  0.15938730  0.07879805  0.94462958     0.99900
N46         N  0.38979054  0.43882239  0.90137651    -0.05300
N47         N  0.34978442  0.43182654  0.90156995    -0.61600
N48         N  0.44190832  0.38675211  0.90731488    -0.04100
N49         N  0.43490249  0.34675125  0.90714202    -0.62200
N50         N  0.42859669  0.39982292  0.94272502    -0.04800
N51         N  0.41209656  0.36882915  0.96737207    -0.61800
N52         N  0.40291483  0.42556074  0.86596881    -0.03700
N53         N  0.37195824  0.40910830  0.84134346    -0.62500
Mn54       Mn  0.42912027  0.46245028  0.95258788     1.10700
C55         C  0.33941202  0.41383711  0.86390474     1.00500
C56         C  0.41685351  0.33631990  0.94482065     1.00500
N57         N  0.06707911  0.46673376  0.84840309    -0.04800
N58         N  0.10037047  0.46014790  0.84493739    -0.60200
N59         N  0.49035083  0.46743355  0.80598355    -0.04100
N60         N  0.47339071  0.45773970  0.77167515    -0.56900
N61         N  0.02837085  0.00545927  0.80594523    -0.05400
N62         N  0.03807601  0.02242297  0.77160335    -0.59700
N63         N  0.02907303  0.42873341  0.84844271    -0.04400
N64         N  0.03567035  0.39546010  0.84500421    -0.56900
Mn65       Mn  0.06967236  0.03020578  0.85595472     1.20200
Mn66       Mn  0.46557136  0.42611580  0.85605307     1.10100
Cl67       Cl  0.49939381  0.49632772  0.90426994    -0.84900
C68         C  0.08019383  0.41563871  0.84269530     0.97500
C69         C  0.50332821  0.49246999  0.75080981     0.97300
N70         N  0.47041127  0.48712598  0.50259148    -0.05000
N71         N  0.46071159  0.47016497  0.53693416    -0.57100
N72         N  0.46974296  0.06386316  0.46009228    -0.04700
N73         N  0.46314697  0.09713748  0.46352992    -0.59300
N74         N  0.43173663  0.02586398  0.46013509    -0.04300
N75         N  0.39844562  0.03245078  0.46360235    -0.57100
N76         N  0.00847231  0.02516189  0.50254018    -0.04000
N77         N  0.02543329  0.03485946  0.53684895    -0.59600
C78         C  0.99544527  0.50010008  0.55772272     0.97100
C79         C  0.41862349  0.07695987  0.46584226     0.96900
N80         N  0.07020155  0.09277265  0.36579666    -0.05200
N81         N  0.08669204  0.12376613  0.34114994    -0.57700
N82         N  0.09590013  0.06703190  0.44254090    -0.03300
N83         N  0.12686127  0.08348116  0.46716118    -0.59000
N84         N  0.10901900  0.05377183  0.40712961    -0.05200
N85         N  0.14902530  0.06076523  0.40692830    -0.58000
N86         N  0.05689680  0.10584290  0.40121023    -0.03000
N87         N  0.06389696  0.14584202  0.40138687    -0.59100
Mn88       Mn  0.03324416  0.06647893  0.45247052     1.18400
C89         C  0.08193575  0.15627339  0.36370642     0.99200
C90         C  0.15940402  0.07875195  0.44459281     0.99900
N91         N  0.38976027  0.43876505  0.40138543    -0.05300
N92         N  0.34975411  0.43177396  0.40159152    -0.61600
N93         N  0.44187051  0.38667803  0.40728832    -0.04100
N94         N  0.43486963  0.34667792  0.40710670    -0.62200
N95         N  0.42856993  0.39974631  0.44270560    -0.04800
N96         N  0.41208182  0.36875083  0.46734897    -0.61800
N97         N  0.40287720  0.42550942  0.36597071    -0.03700
N98         N  0.37191397  0.40906502  0.34135315    -0.62500
Mn99       Mn  0.42910113  0.46237804  0.45258832     1.10700
C100        C  0.33937265  0.41379304  0.36392652     1.00500
C101        C  0.41683467  0.33624379  0.44478723     1.00500
N102        N  0.06703591  0.46665502  0.34837206    -0.04800
N103        N  0.10032321  0.46006243  0.34490199    -0.60200
N104        N  0.49031009  0.46737961  0.30597033    -0.04100
N105        N  0.47335271  0.45769375  0.27166099    -0.56900
N106        N  0.02836715  0.00538579  0.30592319    -0.05400
N107        N  0.03805867  0.02235105  0.27158489    -0.59700
N108        N  0.02902676  0.42865779  0.34840897    -0.04400
N109        N  0.03561809  0.39537967  0.34496476    -0.56900
Mn110      Mn  0.06967764  0.03014472  0.35592614     1.20200
Mn111      Mn  0.46552930  0.42605206  0.35603440     1.10100
Cl112      Cl  0.49936681  0.49625563  0.40426025    -0.84900
C113        C  0.08014121  0.41555240  0.34265407     0.97500
C114        C  0.50329672  0.49242526  0.25079905     0.97300
C115        C  0.99776027  0.49779426  0.59880344    -0.17400
C116        C  0.49889395  0.49672635  0.63372586     0.06600
C117        C  0.49987374  0.49584786  0.67480961     0.08500
C118        C  0.50100923  0.49477827  0.70973113    -0.18300
C119        C  0.49776550  0.49785737  0.09880813    -0.17400
C120        C  0.49889164  0.49676126  0.13372588     0.06600
C121        C  0.49985732  0.49584402  0.17480452     0.08500
C122        C  0.50098192  0.49474782  0.20972253    -0.18300
C123        C  0.10055377  0.19963910  0.35161041    -0.12200
C124        C  0.11878869  0.23781036  0.34513912    -0.13700
C125        C  0.29602611  0.39521182  0.35185089    -0.12200
C126        C  0.25787955  0.37698074  0.34533664    -0.13700
C127        C  0.12241833  0.37326923  0.33911989    -0.12200
C128        C  0.10317142  0.39252085  0.34018501    -0.13700
C129        C  0.11881421  0.23788122  0.84516761    -0.12200
C130        C  0.10057687  0.19971210  0.85164643    -0.14100
C131        C  0.29607093  0.39525447  0.85181789    -0.12200
C132        C  0.25792515  0.37702752  0.84530426    -0.13700
C133        C  0.12247283  0.37335604  0.83915222    -0.12200
C134        C  0.10322881  0.39261185  0.84022438    -0.13700
C135        C  0.37634491  0.11924115  0.46937575    -0.12200
C136        C  0.39558940  0.09998712  0.46830892    -0.13700
C137        C  0.37999288  0.25471007  0.46335777    -0.12200
C138        C  0.39822407  0.29287951  0.45688236    -0.13700
C139        C  0.20274660  0.09732987  0.45667421    -0.12200
C140        C  0.24089183  0.11555544  0.46318968    -0.13700
C141        C  0.39558957  0.10006783  0.96833975    -0.12200
C142        C  0.37634181  0.11931982  0.96941143    -0.13700
C143        C  0.37998123  0.25478246  0.96339428    -0.12200
C144        C  0.39822449  0.29295314  0.95691837    -0.13700
C145        C  0.24088074  0.11561940  0.96322242    -0.12200
C146        C  0.20273362  0.09738574  0.95670912    -0.13700
C147        C  0.35352943  0.64208881  0.96936081     0.81300
N148        N  0.30890213  0.61877279  0.96837634    -0.77000
C149        C  0.28754330  0.64017066  0.96703298     0.83800
N150        N  0.31088952  0.68472828  0.96611438    -0.76900
C151        C  0.35543990  0.70808257  0.96711022     0.83900
N152        N  0.37684018  0.68672440  0.96845185    -0.78700
C153        C  0.35351888  0.64201696  0.46936200     0.81300
N154        N  0.37682895  0.68665244  0.46845220    -0.77000
C155        C  0.35543041  0.70800797  0.46709421     0.83800
N156        N  0.31088190  0.68465095  0.46608322    -0.76900
C157        C  0.28753575  0.64009293  0.46700205     0.83900
N158        N  0.30889359  0.61869811  0.46836185    -0.78700
C159        C  0.14525402  0.85056211  0.83915399     0.81300
N160        N  0.12194754  0.80592650  0.84006214    -0.77000
C161        C  0.14335096  0.78457372  0.84141231     0.83800
N162        N  0.18790019  0.80793341  0.84241791    -0.76900
C163        C  0.21124256  0.85249134  0.84150067     0.83900
N164        N  0.18988020  0.87388369  0.84014860    -0.78700
C165        C  0.14526598  0.85050963  0.33917712     0.81300
N166        N  0.18989197  0.87382370  0.34016944    -0.77000
C167        C  0.21124696  0.85242447  0.34152266     0.83800
N168        N  0.18789733  0.80786672  0.34244265    -0.76900
C169        C  0.14334791  0.78451416  0.34143917     0.83900
N170        N  0.12195218  0.80587429  0.34008763    -0.78700
N171        N  0.47042383  0.98720148  0.00260351    -0.05000
N172        N  0.46071668  0.97023442  0.03694349    -0.57100
N173        N  0.46971507  0.56392233  0.96009552    -0.04700
N174        N  0.46311851  0.59719595  0.96353296    -0.59300
N175        N  0.43170862  0.52592210  0.96013310    -0.04300
N176        N  0.39841798  0.53250862  0.96359667    -0.57100
N177        N  0.00843258  0.52522014  0.00255925    -0.04000
N178        N  0.02538929  0.53491061  0.03686950    -0.59600
C179        C  0.99544687  0.00016451  0.05773793     0.97100
C180        C  0.41859521  0.57701787  0.96583933     0.96900
N181        N  0.07019237  0.59283337  0.86581574    -0.05200
N182        N  0.08669480  0.62382904  0.84116937    -0.57700
N183        N  0.09587234  0.56709084  0.94257062    -0.03300
N184        N  0.12683065  0.58354350  0.96719451    -0.59000
N185        N  0.10899623  0.55383058  0.90716174    -0.05200
N186        N  0.14900271  0.56082693  0.90696624    -0.58000
N187        N  0.05688287  0.60590504  0.90122641    -0.03000
N188        N  0.06389186  0.64590726  0.90140087    -0.59100
Mn189      Mn  0.03321668  0.56653892  0.95248793     1.18400
C190        C  0.08194097  0.65633914  0.86372210     0.99200
C191        C  0.15937667  0.57881578  0.94463125     0.99900
N192        N  0.38979329  0.93883809  0.90138291    -0.05300
N193        N  0.34978517  0.93184052  0.90158191    -0.61600
N194        N  0.44190126  0.88675386  0.90730730    -0.04100
N195        N  0.43489502  0.84675207  0.90712999    -0.62200
N196        N  0.42859286  0.89982294  0.94271987    -0.04800
N197        N  0.41209447  0.86882694  0.96736457    -0.61800
N198        N  0.40291457  0.92557840  0.86597285    -0.03700
N199        N  0.37195376  0.90912541  0.84135129    -0.62500
Mn200      Mn  0.42912550  0.96245527  0.95259244     1.10700
C201        C  0.33940828  0.91385207  0.86391739     1.00500
C202        C  0.41684904  0.83631838  0.94480860     1.00500
N203        N  0.06707462  0.96672909  0.84839704    -0.04800
N204        N  0.10036276  0.96013740  0.84492529    -0.60200
N205        N  0.49035468  0.96745059  0.80598542    -0.04100
N206        N  0.47340030  0.95776074  0.77167432    -0.56900
N207        N  0.02836378  0.50544580  0.80594041    -0.05400
N208        N  0.03806060  0.52240762  0.77159895    -0.59700
N209        N  0.02906599  0.92873157  0.84843389    -0.04400
N210        N  0.03565848  0.89545390  0.84498745    -0.56900
Mn211      Mn  0.06966617  0.53020497  0.85595042     1.20200
Mn212      Mn  0.46556825  0.92612481  0.85605036     1.10100
Cl213      Cl  0.49939932  0.99633058  0.90427412    -0.84900
C214        C  0.08018177  0.91562754  0.84267645     0.97500
C215        C  0.50334489  0.99249034  0.75081090     0.97300
N216        N  0.47045848  0.98715046  0.50258654    -0.05000
N217        N  0.46076208  0.97019284  0.53693012    -0.57100
N218        N  0.46970372  0.56385155  0.46011076    -0.04700
N219        N  0.46310950  0.59712754  0.46355453    -0.59300
N220        N  0.43169568  0.52585322  0.46015132    -0.04300
N221        N  0.39840641  0.53244290  0.46362291    -0.57100
N222        N  0.00842665  0.52513547  0.50254755    -0.04000
N223        N  0.02538588  0.53482844  0.53685659    -0.59600
C224        C  0.99549561  0.00013186  0.55771740     0.97100
C225        C  0.41858578  0.57695239  0.46586836     0.96900
N226        N  0.07016593  0.59276421  0.36581373    -0.05200
N227        N  0.08666636  0.62376344  0.34117237    -0.57700
N228        N  0.09585763  0.56700785  0.44255015    -0.03300
N229        N  0.12682340  0.58346123  0.46716640    -0.59000
N230        N  0.10897471  0.55374873  0.40713706    -0.05200
N231        N  0.14898354  0.56074720  0.40693098    -0.58000
N232        N  0.05686221  0.60583321  0.40122907    -0.03000
N233        N  0.06387367  0.64583718  0.40141138    -0.59100
Mn234      Mn  0.03320335  0.56646062  0.45248382     1.18400
C235        C  0.08191782  0.65627335  0.36373269     0.99200
C236        C  0.15936680  0.57873576  0.44459438     0.99900
N237        N  0.38980615  0.93876551  0.40137960    -0.05300
N238        N  0.34979823  0.93176795  0.40158296    -0.61600
N239        N  0.44192214  0.88668911  0.40729794    -0.04100
N240        N  0.43490629  0.84668348  0.40711845    -0.62200
N241        N  0.42861817  0.89976083  0.44271185    -0.04800
N242        N  0.41211308  0.86876181  0.46735467    -0.61800
N243        N  0.40292404  0.92550434  0.36596773    -0.03700
N244        N  0.37196009  0.90905041  0.34135011    -0.62500
Mn245      Mn  0.42914721  0.96239128  0.45258307     1.10700
C246        C  0.33941646  0.91377757  0.36391983     1.00500
C247        C  0.41685939  0.83624931  0.44479702     1.00500
N248        N  0.06708869  0.96667236  0.34837579    -0.04800
N249        N  0.10037994  0.96008663  0.34491124    -0.60200
N250        N  0.49035323  0.96737428  0.30596843    -0.04100
N251        N  0.47338748  0.95768434  0.27166339    -0.56900
N252        N  0.02832692  0.50538747  0.30592958    -0.05400
N253        N  0.03802941  0.52235494  0.27159055    -0.59700
N254        N  0.02908244  0.92867261  0.34841856    -0.04400
N255        N  0.03567937  0.89539923  0.34498347    -0.56900
Mn256      Mn  0.06963360  0.53013237  0.35593406     1.20200
Mn257      Mn  0.46557996  0.92605595  0.35603826     1.10100
Cl258      Cl  0.49941226  0.99626724  0.40425464    -0.84900
C259        C  0.08020291  0.91557774  0.34267262     0.97500
C260        C  0.50332293  0.99241631  0.25079858     0.97300
C261        C  0.99781238  0.99782890  0.59879836    -0.17400
C262        C  0.49894126  0.99675836  0.63372153     0.06600
C263        C  0.49991070  0.99587432  0.67480654     0.08500
C264        C  0.50103611  0.99480069  0.70972961    -0.18300
C265        C  0.49775913  0.99784124  0.09881480    -0.17400
C266        C  0.49888626  0.99674624  0.13373240     0.06600
C267        C  0.49985952  0.99583145  0.17480979     0.08500
C268        C  0.50099456  0.99473712  0.20972573    -0.18300
C269        C  0.10055219  0.69964428  0.35164291    -0.12200
C270        C  0.11880207  0.73781666  0.34517068    -0.13700
C271        C  0.29606958  0.89518977  0.35184371    -0.12200
C272        C  0.25792202  0.87696005  0.34533364    -0.13700
C273        C  0.12248182  0.87329794  0.33914424    -0.12200
C274        C  0.10323800  0.89255198  0.34020849    -0.13700
C275        C  0.11881268  0.73787632  0.84514656    -0.12200
C276        C  0.10056981  0.69970610  0.85162434    -0.14100
C277        C  0.29606306  0.89526510  0.85183535    -0.12200
C278        C  0.25791717  0.87703411  0.84531865    -0.13700
C279        C  0.12246138  0.87334392  0.83912713    -0.12200
C280        C  0.10321389  0.89259648  0.84019995    -0.13700
C281        C  0.37630686  0.61923314  0.46939974    -0.12200
C282        C  0.39555273  0.59998087  0.46833617    -0.13700
C283        C  0.37997311  0.75470600  0.46336256    -0.12200
C284        C  0.39822223  0.79287835  0.45688927    -0.13700
C285        C  0.20271469  0.59732281  0.45666969    -0.12200
C286        C  0.24086152  0.61555313  0.46318320    -0.13700
C287        C  0.39556082  0.60004538  0.96831025    -0.12200
C288        C  0.37631690  0.61930123  0.96938281    -0.13700
C289        C  0.37998100  0.75478014  0.96337810    -0.12200
C290        C  0.39822334  0.79295117  0.95690356    -0.13700
C291        C  0.24086733  0.61563299  0.96322592    -0.12200
C292        C  0.20272033  0.59740299  0.95671455    -0.13700
C293        C  0.85354702  0.14209887  0.96938384     0.81300
N294        N  0.80892069  0.11877510  0.96838936    -0.77000
C295        C  0.78755596  0.14016493  0.96703761     0.83800
N296        N  0.81089580  0.18472295  0.96612071    -0.76900
C297        C  0.85544524  0.20808495  0.96712631     0.83900
N298        N  0.87685083  0.18673448  0.96847631    -0.78700
C299        C  0.85355417  0.14202386  0.46934628     0.81300
N300        N  0.87686131  0.18665979  0.46843795    -0.77000
C301        C  0.85545743  0.20801288  0.46709013     0.83800
N302        N  0.81090831  0.18465374  0.46608747    -0.76900
C303        C  0.78756584  0.14009612  0.46700469     0.83900
N304        N  0.80892786  0.11870307  0.46835439    -0.78700
C305        C  0.64526141  0.35056950  0.83917433     0.81300
N306        N  0.62195112  0.30593427  0.84008781    -0.77000
C307        C  0.64335307  0.28457758  0.84142936     0.83800
N308        N  0.68790377  0.30793265  0.84242067    -0.76900
C309        C  0.71124940  0.35248968  0.84149785     0.83900
N310        N  0.68988911  0.37388619  0.84015465    -0.78700
C311        C  0.64521449  0.35049289  0.33915515     0.81300
N312        N  0.68983945  0.37382017  0.34015858    -0.77000
C313        C  0.71120573  0.35243327  0.34151561     0.83800
N314        N  0.68786873  0.30787489  0.34242816    -0.76900
C315        C  0.64332069  0.28450925  0.34141366     0.83900
N316        N  0.62191297  0.30585661  0.34005865    -0.78700
N317        N  0.97041906  0.48720892  0.00259946    -0.05000
N318        N  0.96071819  0.47024364  0.03693983    -0.57100
N319        N  0.96973437  0.06393040  0.96011272    -0.04700
N320        N  0.96314315  0.09720849  0.96355722    -0.59300
N321        N  0.93172476  0.02593307  0.96014760    -0.04300
N322        N  0.89843816  0.03252575  0.96361634    -0.57100
N323        N  0.50844081  0.02520922  0.00256474    -0.04000
N324        N  0.52539383  0.03489528  0.03687677    -0.59600
C325        C  0.49544811  0.50017853  0.05773209     0.97100
C326        C  0.91862015  0.07703598  0.96586527     0.96900
N327        N  0.57020809  0.09283963  0.86582977    -0.05200
N328        N  0.58670765  0.12383678  0.84118573    -0.57700
N329        N  0.59588293  0.06707736  0.94257569    -0.03300
N330        N  0.62684324  0.08352620  0.96719684    -0.59000
N331        N  0.60900370  0.05381885  0.90716422    -0.05200
N332        N  0.64901032  0.06081296  0.90696457    -0.58000
N333        N  0.55690213  0.10590939  0.90124319    -0.03000
N334        N  0.56391080  0.14591239  0.90142189    -0.59100
Mn335      Mn  0.53323125  0.06653555  0.95249906     1.18400
C336        C  0.58195601  0.15634621  0.86374314     0.99200
C337        C  0.65938738  0.07879809  0.94462953     0.99900
N338        N  0.88979039  0.43882237  0.90137656    -0.05300
N339        N  0.84978454  0.43182657  0.90157002    -0.61600
N340        N  0.94190832  0.38675210  0.90731499    -0.04100
N341        N  0.93490260  0.34675130  0.90714198    -0.62200
N342        N  0.92859678  0.39982297  0.94272491    -0.04800
N343        N  0.91209658  0.36882907  0.96737212    -0.61800
N344        N  0.90291487  0.42556071  0.86596873    -0.03700
N345        N  0.87195818  0.40910829  0.84134349    -0.62500
Mn346      Mn  0.92912030  0.46245025  0.95258793     1.10700
C347        C  0.83941197  0.41383708  0.86390472     1.00500
C348        C  0.91685361  0.33631999  0.94482068     1.00500
N349        N  0.56707903  0.46673375  0.84840311    -0.04800
N350        N  0.60037041  0.46014784  0.84493739    -0.60200
N351        N  0.99035083  0.46743353  0.80598349    -0.04100
N352        N  0.97339068  0.45773964  0.77167518    -0.56900
N353        N  0.52837082  0.00545931  0.80594523    -0.05400
N354        N  0.53807594  0.02242297  0.77160341    -0.59700
N355        N  0.52907309  0.42873334  0.84844270    -0.04400
N356        N  0.53567026  0.39546015  0.84500424    -0.56900
Mn357      Mn  0.56967232  0.03020578  0.85595469     1.20200
Mn358      Mn  0.96557134  0.42611579  0.85605306     1.10100
Cl359      Cl  0.99939382  0.49632773  0.90426994    -0.84900
C360        C  0.58019382  0.41563871  0.84269531     0.97500
C361        C  0.00332820  0.49246996  0.75080980     0.97300
N362        N  0.97041125  0.48712597  0.50259155    -0.05000
N363        N  0.96071154  0.47016498  0.53693413    -0.57100
N364        N  0.96974297  0.06386317  0.46009228    -0.04700
N365        N  0.96314700  0.09713750  0.46352992    -0.59300
N366        N  0.93173666  0.02586399  0.46013510    -0.04300
N367        N  0.89844564  0.03245080  0.46360236    -0.57100
N368        N  0.50847230  0.02516189  0.50254014    -0.04000
N369        N  0.52543326  0.03485942  0.53684894    -0.59600
C370        C  0.49544530  0.50010008  0.55772273     0.97100
C371        C  0.91862354  0.07695989  0.46584226     0.96900
N372        N  0.57020147  0.09277257  0.36579671    -0.05200
N373        N  0.58669211  0.12376622  0.34114993    -0.57700
N374        N  0.59590006  0.06703186  0.44254085    -0.03300
N375        N  0.62686131  0.08348115  0.46716115    -0.59000
N376        N  0.60901911  0.05377186  0.40712966    -0.05200
N377        N  0.64902520  0.06076521  0.40692824    -0.58000
N378        N  0.55689685  0.10584290  0.40121018    -0.03000
N379        N  0.56389696  0.14584204  0.40138688    -0.59100
Mn380      Mn  0.53324419  0.06647895  0.45247050     1.18400
C381        C  0.58193580  0.15627332  0.36370643     0.99200
C382        C  0.65940398  0.07875196  0.44459281     0.99900
N383        N  0.88976027  0.43876507  0.40138550    -0.05300
N384        N  0.84975411  0.43177397  0.40159152    -0.61600
N385        N  0.94187049  0.38667806  0.40728833    -0.04100
N386        N  0.93486963  0.34667792  0.40710671    -0.62200
N387        N  0.92856993  0.39974628  0.44270560    -0.04800
N388        N  0.91208177  0.36875081  0.46734895    -0.61800
N389        N  0.90287723  0.42550941  0.36597068    -0.03700
N390        N  0.87191395  0.40906502  0.34135316    -0.62500
Mn391      Mn  0.92910118  0.46237805  0.45258831     1.10700
C392        C  0.83937264  0.41379305  0.36392651     1.00500
C393        C  0.91683466  0.33624379  0.44478723     1.00500
N394        N  0.56703589  0.46665488  0.34837206    -0.04800
N395        N  0.60032324  0.46006251  0.34490201    -0.60200
N396        N  0.99031003  0.46737960  0.30597033    -0.04100
N397        N  0.97335272  0.45769374  0.27166098    -0.56900
N398        N  0.52836713  0.00538577  0.30592322    -0.05400
N399        N  0.53805867  0.02235108  0.27158486    -0.59700
N400        N  0.52902683  0.42865790  0.34840899    -0.04400
N401        N  0.53561815  0.39537961  0.34496475    -0.56900
Mn402      Mn  0.56967769  0.03014474  0.35592617     1.20200
Mn403      Mn  0.96552925  0.42605205  0.35603441     1.10100
Cl404      Cl  0.99936678  0.49625562  0.40426026    -0.84900
C405        C  0.58014118  0.41555236  0.34265407     0.97500
C406        C  0.00329667  0.49242526  0.25079906     0.97300
C407        C  0.49776032  0.49779430  0.59880340    -0.17400
C408        C  0.99889387  0.49672637  0.63372585     0.06600
C409        C  0.99987372  0.49584782  0.67480960     0.08500
C410        C  0.00100922  0.49477828  0.70973112    -0.18300
C411        C  0.99776553  0.49785736  0.09880812    -0.17400
C412        C  0.99889169  0.49676130  0.13372586     0.06600
C413        C  0.99985734  0.49584402  0.17480452     0.08500
C414        C  0.00098187  0.49474778  0.20972250    -0.18300
C415        C  0.60055384  0.19963914  0.35161038    -0.12200
C416        C  0.61878871  0.23781034  0.34513914    -0.13700
C417        C  0.79602619  0.39521184  0.35185089    -0.12200
C418        C  0.75787958  0.37698072  0.34533664    -0.13700
C419        C  0.62241826  0.37326921  0.33911988    -0.12200
C420        C  0.60317148  0.39252084  0.34018500    -0.13700
C421        C  0.61881414  0.23788121  0.84516761    -0.12200
C422        C  0.60057687  0.19971213  0.85164642    -0.14100
C423        C  0.79607095  0.39525453  0.85181795    -0.12200
C424        C  0.75792506  0.37702744  0.84530426    -0.13700
C425        C  0.62247278  0.37335613  0.83915222    -0.12200
C426        C  0.60322876  0.39261171  0.84022438    -0.13700
C427        C  0.87634490  0.11924109  0.46937575    -0.12200
C428        C  0.89558946  0.09998713  0.46830892    -0.13700
C429        C  0.87999285  0.25471009  0.46335775    -0.12200
C430        C  0.89822408  0.29287951  0.45688241    -0.13700
C431        C  0.70274667  0.09732985  0.45667418    -0.12200
C432        C  0.74089182  0.11555545  0.46318968    -0.13700
C433        C  0.89558952  0.10006786  0.96833976    -0.12200
C434        C  0.87634176  0.11931981  0.96941144    -0.13700
C435        C  0.87998127  0.25478253  0.96339429    -0.12200
C436        C  0.89822452  0.29295309  0.95691833    -0.13700
C437        C  0.74088075  0.11561943  0.96322239    -0.12200
C438        C  0.70273355  0.09738575  0.95670913    -0.13700
C439        C  0.85352947  0.64208887  0.96936081     0.81300
N440        N  0.80890222  0.61877280  0.96837634    -0.77000
C441        C  0.78754332  0.64017059  0.96703298     0.83800
N442        N  0.81088952  0.68472823  0.96611438    -0.76900
C443        C  0.85543994  0.70808259  0.96711022     0.83900
N444        N  0.87684023  0.68672444  0.96845185    -0.78700
C445        C  0.85351883  0.64201687  0.46936200     0.81300
N446        N  0.87682906  0.68665245  0.46845220    -0.77000
C447        C  0.85543035  0.70800795  0.46709421     0.83800
N448        N  0.81088202  0.68465097  0.46608322    -0.76900
C449        C  0.78753582  0.64009300  0.46700204     0.83900
N450        N  0.80889362  0.61869811  0.46836184    -0.78700
C451        C  0.64525402  0.85056211  0.83915398     0.81300
N452        N  0.62194755  0.80592652  0.84006214    -0.77000
C453        C  0.64335096  0.78457371  0.84141230     0.83800
N454        N  0.68790015  0.80793338  0.84241791    -0.76900
C455        C  0.71124259  0.85249136  0.84150067     0.83900
N456        N  0.68988015  0.87388368  0.84014860    -0.78700
C457        C  0.64526595  0.85050963  0.33917711     0.81300
N458        N  0.68989202  0.87382371  0.34016943    -0.77000
C459        C  0.71124699  0.85242446  0.34152265     0.83800
N460        N  0.68789742  0.80786675  0.34244264    -0.76900
C461        C  0.64334797  0.78451416  0.34143917     0.83900
N462        N  0.62195228  0.80587429  0.34008764    -0.78700
N463        N  0.97042376  0.98720148  0.00260353    -0.05000
N464        N  0.96071664  0.97023443  0.03694345    -0.57100
N465        N  0.96971498  0.56392220  0.96009552    -0.04700
N466        N  0.96311853  0.59719604  0.96353297    -0.59300
N467        N  0.93170876  0.52592217  0.96013311    -0.04300
N468        N  0.89841787  0.53250864  0.96359668    -0.57100
N469        N  0.50843259  0.52522013  0.00255920    -0.04000
N470        N  0.52538926  0.53491055  0.03686952    -0.59600
C471        C  0.49544695  0.00016449  0.05773790     0.97100
C472        C  0.91859525  0.57701786  0.96583933     0.96900
N473        N  0.57019241  0.59283337  0.86581573    -0.05200
N474        N  0.58669484  0.62382904  0.84116940    -0.57700
N475        N  0.59587236  0.56709083  0.94257064    -0.03300
N476        N  0.62683067  0.58354346  0.96719449    -0.59000
N477        N  0.60899626  0.55383056  0.90716174    -0.05200
N478        N  0.64900273  0.56082692  0.90696624    -0.58000
N479        N  0.55688289  0.60590505  0.90122642    -0.03000
N480        N  0.56389191  0.64590725  0.90140088    -0.59100
Mn481      Mn  0.53321664  0.56653891  0.95248793     1.18400
C482        C  0.58194101  0.65633915  0.86372211     0.99200
C483        C  0.65937671  0.57881576  0.94463125     0.99900
N484        N  0.88979311  0.93883815  0.90138296    -0.05300
N485        N  0.84978533  0.93184058  0.90158192    -0.61600
N486        N  0.94190125  0.88675388  0.90730734    -0.04100
N487        N  0.93489500  0.84675210  0.90712996    -0.62200
N488        N  0.92859285  0.89982295  0.94271986    -0.04800
N489        N  0.91209441  0.86882691  0.96736457    -0.61800
N490        N  0.90291463  0.92557839  0.86597270    -0.03700
N491        N  0.87195379  0.90912548  0.84135131    -0.62500
Mn492      Mn  0.92912552  0.96245528  0.95259246     1.10700
C493        C  0.83940823  0.91385205  0.86391733     1.00500
C494        C  0.91684902  0.83631840  0.94480860     1.00500
N495        N  0.56707464  0.96672910  0.84839703    -0.04800
N496        N  0.60036278  0.96013744  0.84492530    -0.60200
N497        N  0.99035476  0.96745063  0.80598545    -0.04100
N498        N  0.97340030  0.95776078  0.77167430    -0.56900
N499        N  0.52836382  0.50544579  0.80594035    -0.05400
N500        N  0.53806064  0.52240767  0.77159904    -0.59700
N501        N  0.52906600  0.92873159  0.84843389    -0.04400
N502        N  0.53565853  0.89545393  0.84498743    -0.56900
Mn503      Mn  0.56966619  0.53020496  0.85595047     1.20200
Mn504      Mn  0.96556824  0.92612481  0.85605037     1.10100
Cl505      Cl  0.99939934  0.99633059  0.90427412    -0.84900
C506        C  0.58018180  0.91562757  0.84267644     0.97500
C507        C  0.00334494  0.99249036  0.75081092     0.97300
N508        N  0.97045852  0.98715043  0.50258656    -0.05000
N509        N  0.96076209  0.97019284  0.53693012    -0.57100
N510        N  0.96970373  0.56385157  0.46011077    -0.04700
N511        N  0.96310952  0.59712754  0.46355454    -0.59300
N512        N  0.93169566  0.52585321  0.46015133    -0.04300
N513        N  0.89840644  0.53244290  0.46362290    -0.57100
N514        N  0.50842669  0.52513552  0.50254761    -0.04000
N515        N  0.52538594  0.53482846  0.53685658    -0.59600
C516        C  0.49549560  0.00013185  0.55771737     0.97100
C517        C  0.91858582  0.57695239  0.46586836     0.96900
N518        N  0.57016600  0.59276424  0.36581369    -0.05200
N519        N  0.58666639  0.62376342  0.34117239    -0.57700
N520        N  0.59585776  0.56700795  0.44255027    -0.03300
N521        N  0.62682330  0.58346121  0.46716640    -0.59000
N522        N  0.60897464  0.55374868  0.40713696    -0.05200
N523        N  0.64898361  0.56074723  0.40693104    -0.58000
N524        N  0.55686219  0.60583320  0.40122910    -0.03000
N525        N  0.56387365  0.64583716  0.40141135    -0.59100
Mn526      Mn  0.53320335  0.56646063  0.45248382     1.18400
C527        C  0.58191785  0.65627339  0.36373269     0.99200
C528        C  0.65936691  0.57873576  0.44459436     0.99900
N529        N  0.88980636  0.93876545  0.40137939    -0.05300
N530        N  0.84979811  0.93176793  0.40158296    -0.61600
N531        N  0.94192215  0.88668913  0.40729796    -0.04100
N532        N  0.93490631  0.84668344  0.40711846    -0.62200
N533        N  0.92861823  0.89976083  0.44271180    -0.04800
N534        N  0.91211310  0.86876180  0.46735469    -0.61800
N535        N  0.90292405  0.92550446  0.36596801    -0.03700
N536        N  0.87196003  0.90905034  0.34135000    -0.62500
Mn537      Mn  0.92914725  0.96239127  0.45258306     1.10700
C538        C  0.83941665  0.91377763  0.36391985     1.00500
C539        C  0.91685941  0.83624932  0.44479702     1.00500
N540        N  0.56708883  0.96667244  0.34837579    -0.04800
N541        N  0.60037984  0.96008662  0.34491123    -0.60200
N542        N  0.99035322  0.96737424  0.30596840    -0.04100
N543        N  0.97338754  0.95768431  0.27166342    -0.56900
N544        N  0.52832691  0.50538745  0.30592962    -0.05400
N545        N  0.53802945  0.52235493  0.27159051    -0.59700
N546        N  0.52908235  0.92867250  0.34841855    -0.04400
N547        N  0.53567935  0.89539932  0.34498350    -0.56900
Mn548      Mn  0.56963359  0.53013235  0.35593404     1.20200
Mn549      Mn  0.96557994  0.92605593  0.35603825     1.10100
Cl550      Cl  0.99941228  0.99626724  0.40425463    -0.84900
C551        C  0.58020293  0.91557771  0.34267263     0.97500
C552        C  0.00332295  0.99241627  0.25079855     0.97300
C553        C  0.49781240  0.99782891  0.59879835    -0.17400
C554        C  0.99894114  0.99675839  0.63372153     0.06600
C555        C  0.99991064  0.99587436  0.67480656     0.08500
C556        C  0.00103613  0.99480074  0.70972963    -0.18300
C557        C  0.99775902  0.99784127  0.09881481    -0.17400
C558        C  0.99888627  0.99674622  0.13373243     0.06600
C559        C  0.99985952  0.99583143  0.17480976     0.08500
C560        C  0.00099454  0.99473712  0.20972573    -0.18300
C561        C  0.60055222  0.69964425  0.35164292    -0.12200
C562        C  0.61880210  0.73781668  0.34517067    -0.13700
C563        C  0.79606951  0.89518974  0.35184368    -0.12200
C564        C  0.75792214  0.87696014  0.34533367    -0.13700
C565        C  0.62248191  0.87329796  0.33914424    -0.12200
C566        C  0.60323799  0.89255199  0.34020849    -0.13700
C567        C  0.61881270  0.73787631  0.84514658    -0.12200
C568        C  0.60056979  0.69970611  0.85162431    -0.14100
C569        C  0.79606305  0.89526512  0.85183540    -0.12200
C570        C  0.75791714  0.87703405  0.84531860    -0.13700
C571        C  0.62246141  0.87334396  0.83912714    -0.12200
C572        C  0.60321392  0.89259648  0.84019996    -0.13700
C573        C  0.87630695  0.61923317  0.46939975    -0.12200
C574        C  0.89555276  0.59998091  0.46833618    -0.13700
C575        C  0.87997315  0.75470601  0.46336258    -0.12200
C576        C  0.89822222  0.79287833  0.45688925    -0.13700
C577        C  0.70271463  0.59732276  0.45666965    -0.12200
C578        C  0.74086161  0.61555310  0.46318323    -0.13700
C579        C  0.89556085  0.60004540  0.96831025    -0.12200
C580        C  0.87631694  0.61930121  0.96938281    -0.13700
C581        C  0.87998098  0.75478015  0.96337810    -0.12200
C582        C  0.89822336  0.79295118  0.95690360    -0.13700
C583        C  0.74086739  0.61563304  0.96322593    -0.12200
C584        C  0.70272036  0.59740296  0.95671455    -0.13700
loop_ 
_geom_bond_atom_site_label_1 
_geom_bond_atom_site_label_2 
_geom_bond_distance 
_geom_bond_site_symmetry_2 
_ccdc_geom_bond_type 
C1            N2   1.358       .  A
C1            N6   1.358       .  A
C1          C142   1.436       .  S
N2            C3   1.357       .  A
C3            N4   1.356       .  A
C3          C145   1.436       .  S
N4            C5   1.356       .  A
C5            N6   1.357       .  A
C5          C143   1.436       .  S
C7            N8   1.359       .  A
C7           N12   1.358       .  A
C7          C135   1.436       .  S
N8            C9   1.357       .  A
C9           N10   1.356       .  A
C9          C137   1.436       .  S
N10          C11   1.356       .  A
C11          N12   1.357       .  A
C11         C140   1.436       .  S
C13          N14   1.359       .  A
C13          N18   1.358       .  A
C13         C133   1.436       .  S
N14          C15   1.357       .  A
C15          N16   1.356       .  A
C15         C129   1.436       .  S
N16          C17   1.356       .  A
C17          N18   1.357       .  A
C17         C132   1.436       .  S
C19          N20   1.358       .  A
C19          N24   1.359       .  A
C19         C127   1.436       .  S
N20          C21   1.357       .  A
C21          N22   1.356       .  A
C21         C126   1.436       .  S
N22          C23   1.356       .  A
C23          N24   1.357       .  A
C23         C124   1.436       .  S
N25          N26   1.321       .  A
N25         N469   1.316       .  A
N25         Mn54   2.204   1_554  S
N26         C325   1.351       .  A
N27          N29   1.316       .  A
N27          N28   1.321       .  A
N27        Mn335   2.203       .  S
N28          C34   1.351       .  A
N29          N30   1.321       .  A
N29        Mn200   2.203   1_545  S
N30          C34   1.351       .  A
N31          N32   1.321       .  A
N31         N463   1.316   1_445  A
N31         Mn43   2.204   1_554  S
N32         C179   1.351   1_455  A
C33         N318   1.351       .  A
C33         N178   1.351   1_655  A
C33         C411   1.437       .  S
C34         C141   1.436       .  S
N35          N41   1.316       .  A
N35          N36   1.322       .  A
N35         Mn65   2.206       .  S
N36          C44   1.352       .  A
N37          N38   1.322       .  A
N37          N39   1.316       .  A
N37         Mn43   2.206       .  S
N38          C45   1.352       .  A
N39          N40   1.320       .  A
N39         Mn65   2.200       .  S
N40          C45   1.350       .  A
N41          N42   1.320       .  A
N41         Mn43   2.200       .  S
N42          C44   1.350       .  A
Mn43        N319   2.203   1_455  S
Mn43       Cl505   2.548   1_445  S
C44         C130   1.436       .  S
C45         C146   1.436       .  S
N46          N47   1.320       .  A
N46          N52   1.316       .  A
N46         Mn54   2.200       .  S
N47          C55   1.350       .  A
N48          N50   1.316       .  A
N48          N49   1.320       .  A
N48         Mn66   2.200       .  S
N49          C56   1.350       .  A
N50          N51   1.322       .  A
N50         Mn54   2.206       .  S
N51          C56   1.352       .  A
N52          N53   1.322       .  A
N52         Mn66   2.206       .  S
N53          C55   1.352       .  A
Mn54        N175   2.203       .  S
Mn54        Cl67   2.548       .  S
C55         C131   1.436       .  S
C56         C144   1.436       .  S
N57          N58   1.321       .  A
N57          N63   1.316       .  A
N57        Mn211   2.203       .  S
N58          C68   1.351       .  A
N59          N60   1.321       .  A
N59         N499   1.316       .  A
N59         Mn66   2.204       .  S
N60          C69   1.351       .  A
N61          N62   1.321       .  A
N61         N497   1.316   1_445  A
N61         Mn65   2.204       .  S
N62         C507   1.351   1_545  A
N63          N64   1.321       .  A
N63        Mn358   2.203   1_455  S
N64          C68   1.351       .  A
Mn65        N203   2.203   1_545  S
Mn65       Cl505   2.548   1_445  S
Mn66        N355   2.203       .  S
Mn66        Cl67   2.548       .  S
Cl67       Mn481   2.548       .  S
Cl67       Mn503   2.548       .  S
C68         C134   1.436       .  S
C69         N500   1.351       .  A
C69         C118   1.437       .  S
N70          N71   1.321       .  A
N70         N514   1.316       .  A
N70         Mn99   2.204       .  S
N71         C370   1.351       .  A
N72          N74   1.316       .  A
N72          N73   1.321       .  A
N72        Mn380   2.203       .  S
N73          C79   1.351       .  A
N74          N75   1.321       .  A
N74        Mn245   2.203   1_545  S
N75          C79   1.351       .  A
N76          N77   1.321       .  A
N76         N508   1.316   1_445  A
N76         Mn88   2.204       .  S
N77         C224   1.351   1_455  A
C78         N363   1.351       .  A
C78         N223   1.351   1_655  A
C78         C115   1.437       .  S
C79         C136   1.436       .  S
N80          N86   1.316       .  A
N80          N81   1.322       .  A
N80        Mn110   2.206       .  S
N81          C89   1.352       .  A
N82          N83   1.322       .  A
N82          N84   1.316       .  A
N82         Mn88   2.206       .  S
N83          C90   1.352       .  A
N84          N85   1.320       .  A
N84        Mn110   2.200       .  S
N85          C90   1.350       .  A
N86          N87   1.320       .  A
N86         Mn88   2.200       .  S
N87          C89   1.350       .  A
Mn88        N364   2.202   1_455  S
Mn88       Cl550   2.548   1_445  S
C89         C123   1.436       .  S
C90         C139   1.436       .  S
N91          N92   1.320       .  A
N91          N97   1.316       .  A
N91         Mn99   2.200       .  S
N92         C100   1.350       .  A
N93          N95   1.316       .  A
N93          N94   1.320       .  A
N93        Mn111   2.200       .  S
N94         C101   1.350       .  A
N95          N96   1.322       .  A
N95         Mn99   2.206       .  S
N96         C101   1.352       .  A
N97          N98   1.322       .  A
N97        Mn111   2.206       .  S
N98         C100   1.352       .  A
Mn99        N220   2.203       .  S
Mn99       Cl112   2.548       .  S
C100        C125   1.436       .  S
C101        C138   1.436       .  S
N102        N103   1.321       .  A
N102        N108   1.316       .  A
N102       Mn256   2.203       .  S
N103        C113   1.351       .  A
N104        N105   1.321       .  A
N104        N544   1.316       .  A
N104       Mn111   2.204       .  S
N105        C114   1.351       .  A
N106        N107   1.321       .  A
N106        N542   1.316   1_445  A
N106       Mn110   2.204       .  S
N107        C552   1.351   1_545  A
N108        N109   1.321       .  A
N108       Mn403   2.203   1_455  S
N109        C113   1.351       .  A
Mn110       N248   2.203   1_545  S
Mn110      Cl550   2.548   1_445  S
Mn111       N400   2.203       .  S
Mn111      Cl112   2.548       .  S
Cl112      Mn526   2.548       .  S
Cl112      Mn548   2.548       .  S
C113        C128   1.436       .  S
C114        N545   1.351       .  A
C114        C122   1.437       .  S
C115        C408   1.207       .  T
C116        C407   1.207       .  T
C116        C117   1.414       .  S
C117        C118   1.207       .  T
C119        C325   1.437       .  S
C119        C120   1.207       .  T
C120        C121   1.414       .  S
C121        C122   1.207       .  T
C123        C124   1.206       .  T
C125        C126   1.206       .  T
C127        C128   1.206       .  T
C129        C130   1.206       .  T
C131        C132   1.206       .  T
C133        C134   1.206       .  T
C135        C136   1.206       .  T
C137        C138   1.206       .  T
C139        C140   1.206       .  T
C141        C142   1.206       .  T
C143        C144   1.206       .  T
C145        C146   1.206       .  T
C147        N148   1.358       .  A
C147        N152   1.358       .  A
C147        C288   1.436       .  S
N148        C149   1.357       .  A
C149        N150   1.356       .  A
C149        C291   1.436       .  S
N150        C151   1.356       .  A
C151        N152   1.357       .  A
C151        C289   1.436       .  S
C153        N154   1.358       .  A
C153        N158   1.358       .  A
C153        C281   1.436       .  S
N154        C155   1.357       .  A
C155        N156   1.356       .  A
C155        C283   1.436       .  S
N156        C157   1.356       .  A
C157        N158   1.357       .  A
C157        C286   1.436       .  S
C159        N160   1.358       .  A
C159        N164   1.358       .  A
C159        C279   1.436       .  S
N160        C161   1.357       .  A
C161        N162   1.356       .  A
C161        C275   1.436       .  S
N162        C163   1.356       .  A
C163        N164   1.357       .  A
C163        C278   1.436       .  S
C165        N166   1.358       .  A
C165        N170   1.358       .  A
C165        C273   1.436       .  S
N166        C167   1.357       .  A
C167        N168   1.356       .  A
C167        C272   1.436       .  S
N168        C169   1.356       .  A
C169        N170   1.357       .  A
C169        C270   1.436       .  S
N171        N172   1.321       .  A
N171        N323   1.316   1_565  A
N171       Mn200   2.204   1_554  S
N172        C471   1.351   1_565  A
N173        N175   1.316       .  A
N173        N174   1.321       .  A
N173       Mn481   2.203       .  S
N174        C180   1.351       .  A
N175        N176   1.321       .  A
N176        C180   1.351       .  A
N177        N317   1.316   1_455  A
N177        N178   1.321       .  A
N177       Mn189   2.204   1_554  S
C179        N464   1.351   1_545  A
C179        C557   1.437   1_545  S
C180        C287   1.436       .  S
N181        N187   1.316       .  A
N181        N182   1.322       .  A
N181       Mn211   2.206       .  S
N182        C190   1.352       .  A
N183        N184   1.322       .  A
N183        N185   1.316       .  A
N183       Mn189   2.206       .  S
N184        C191   1.352       .  A
N185        N186   1.320       .  A
N185       Mn211   2.200       .  S
N186        C191   1.350       .  A
N187        N188   1.320       .  A
N187       Mn189   2.200       .  S
N188        C190   1.350       .  A
Mn189       N465   2.203   1_455  S
Mn189      Cl359   2.548   1_455  S
C190        C276   1.436       .  S
C191        C292   1.436       .  S
N192        N193   1.320       .  A
N192        N198   1.316       .  A
N192       Mn200   2.200       .  S
N193        C201   1.350       .  A
N194        N196   1.316       .  A
N194        N195   1.320       .  A
N194       Mn212   2.200       .  S
N195        C202   1.350       .  A
N196        N197   1.322       .  A
N196       Mn200   2.206       .  S
N197        C202   1.352       .  A
N198        N199   1.322       .  A
N198       Mn212   2.206       .  S
N199        C201   1.352       .  A
Mn200      Cl213   2.548       .  S
C201        C277   1.436       .  S
C202        C290   1.436       .  S
N203        N204   1.321       .  A
N203        N209   1.316       .  A
N204        C214   1.351       .  A
N205        N206   1.321       .  A
N205        N353   1.316   1_565  A
N205       Mn212   2.204       .  S
N206        C215   1.351       .  A
N207        N351   1.316   1_455  A
N207        N208   1.321       .  A
N207       Mn211   2.204       .  S
N208        C361   1.351       .  A
N209        N210   1.321       .  A
N209       Mn504   2.203   1_455  S
N210        C214   1.351       .  A
Mn211      Cl359   2.548   1_455  S
Mn212       N501   2.203       .  S
Mn212      Cl213   2.548       .  S
Cl213      Mn335   2.548   1_565  S
Cl213      Mn357   2.548   1_565  S
C214        C280   1.436       .  S
C215        N354   1.351   1_565  A
C215        C264   1.437       .  S
N216        N217   1.321       .  A
N216        N368   1.316   1_565  A
N216       Mn245   2.204       .  S
N217        C516   1.351   1_565  A
N218        N220   1.316       .  A
N218        N219   1.321       .  A
N218       Mn526   2.203       .  S
N219        C225   1.351       .  A
N220        N221   1.321       .  A
N221        C225   1.351       .  A
N222        N362   1.316   1_455  A
N222        N223   1.321       .  A
N222       Mn234   2.204       .  S
C224        N509   1.351   1_545  A
C224        C261   1.437   1_545  S
C225        C282   1.436       .  S
N226        N232   1.316       .  A
N226        N227   1.322       .  A
N226       Mn256   2.206       .  S
N227        C235   1.352       .  A
N228        N229   1.322       .  A
N228        N230   1.316       .  A
N228       Mn234   2.206       .  S
N229        C236   1.352       .  A
N230        N231   1.320       .  A
N230       Mn256   2.200       .  S
N231        C236   1.350       .  A
N232        N233   1.319       .  A
N232       Mn234   2.200       .  S
N233        C235   1.350       .  A
Mn234       N510   2.203   1_455  S
Mn234      Cl404   2.548   1_455  S
C235        C269   1.436       .  S
C236        C285   1.436       .  S
N237        N238   1.320       .  A
N237        N243   1.316       .  A
N237       Mn245   2.200       .  S
N238        C246   1.350       .  A
N239        N241   1.316       .  A
N239        N240   1.320       .  A
N239       Mn257   2.200       .  S
N240        C247   1.350       .  A
N241        N242   1.322       .  A
N241       Mn245   2.206       .  S
N242        C247   1.352       .  A
N243        N244   1.322       .  A
N243       Mn257   2.206       .  S
N244        C246   1.352       .  A
Mn245      Cl258   2.548       .  S
C246        C271   1.436       .  S
C247        C284   1.436       .  S
N248        N249   1.321       .  A
N248        N254   1.316       .  A
N249        C259   1.351       .  A
N250        N251   1.321       .  A
N250        N398   1.316   1_565  A
N250       Mn257   2.204       .  S
N251        C260   1.351       .  A
N252        N396   1.316   1_455  A
N252        N253   1.321       .  A
N252       Mn256   2.204       .  S
N253        C406   1.351       .  A
N254        N255   1.321       .  A
N254       Mn549   2.203   1_455  S
N255        C259   1.351       .  A
Mn256      Cl404   2.548   1_455  S
Mn257       N546   2.203       .  S
Mn257      Cl258   2.548       .  S
Cl258      Mn380   2.548   1_565  S
Cl258      Mn402   2.548   1_565  S
C259        C274   1.436       .  S
C260        N399   1.351   1_565  A
C260        C268   1.437       .  S
C261        C554   1.207       .  T
C262        C553   1.207       .  T
C262        C263   1.414       .  S
C263        C264   1.207       .  T
C265        C471   1.437   1_565  S
C265        C266   1.207       .  T
C266        C267   1.414       .  S
C267        C268   1.207       .  T
C269        C270   1.206       .  T
C271        C272   1.206       .  T
C273        C274   1.206       .  T
C275        C276   1.206       .  T
C277        C278   1.206       .  T
C279        C280   1.206       .  T
C281        C282   1.206       .  T
C283        C284   1.206       .  T
C285        C286   1.206       .  T
C287        C288   1.206       .  T
C289        C290   1.206       .  T
C291        C292   1.206       .  T
C293        N294   1.358       .  A
C293        N298   1.358       .  A
C293        C434   1.436       .  S
N294        C295   1.357       .  A
C295        N296   1.356       .  A
C295        C437   1.436       .  S
N296        C297   1.356       .  A
C297        N298   1.357       .  A
C297        C435   1.436       .  S
C299        N300   1.359       .  A
C299        N304   1.358       .  A
C299        C427   1.436       .  S
N300        C301   1.357       .  A
C301        N302   1.356       .  A
C301        C429   1.436       .  S
N302        C303   1.356       .  A
C303        N304   1.357       .  A
C303        C432   1.436       .  S
C305        N306   1.359       .  A
C305        N310   1.358       .  A
C305        C425   1.436       .  S
N306        C307   1.357       .  A
C307        N308   1.356       .  A
C307        C421   1.436       .  S
N308        C309   1.356       .  A
C309        N310   1.357       .  A
C309        C424   1.436       .  S
C311        N312   1.358       .  A
C311        N316   1.359       .  A
C311        C419   1.436       .  S
N312        C313   1.357       .  A
C313        N314   1.356       .  A
C313        C418   1.436       .  S
N314        C315   1.356       .  A
C315        N316   1.357       .  A
C315        C416   1.436       .  S
N317        N318   1.321       .  A
N317       Mn346   2.204   1_554  S
N319        N321   1.316       .  A
N319        N320   1.321       .  A
N320        C326   1.351       .  A
N321        N322   1.321       .  A
N321       Mn492   2.203   1_545  S
N322        C326   1.351       .  A
N323        N324   1.321       .  A
N323       Mn335   2.204   1_554  S
N324        C471   1.351       .  A
C325        N470   1.351       .  A
C326        C433   1.436       .  S
N327        N333   1.316       .  A
N327        N328   1.322       .  A
N327       Mn357   2.206       .  S
N328        C336   1.352       .  A
N329        N330   1.322       .  A
N329        N331   1.316       .  A
N329       Mn335   2.206       .  S
N330        C337   1.352       .  A
N331        N332   1.320       .  A
N331       Mn357   2.200       .  S
N332        C337   1.350       .  A
N333        N334   1.320       .  A
N333       Mn335   2.200       .  S
N334        C336   1.350       .  A
C336        C422   1.436       .  S
C337        C438   1.436       .  S
N338        N339   1.320       .  A
N338        N344   1.316       .  A
N338       Mn346   2.200       .  S
N339        C347   1.350       .  A
N340        N342   1.316       .  A
N340        N341   1.320       .  A
N340       Mn358   2.200       .  S
N341        C348   1.350       .  A
N342        N343   1.322       .  A
N342       Mn346   2.206       .  S
N343        C348   1.352       .  A
N344        N345   1.322       .  A
N344       Mn358   2.206       .  S
N345        C347   1.352       .  A
Mn346       N467   2.203       .  S
Mn346      Cl359   2.548       .  S
C347        C423   1.436       .  S
C348        C436   1.436       .  S
N349        N350   1.321       .  A
N349        N355   1.316       .  A
N349       Mn503   2.203       .  S
N350        C360   1.351       .  A
N351        N352   1.321       .  A
N351       Mn358   2.204       .  S
N352        C361   1.351   1_655  A
N353        N354   1.321       .  A
N353       Mn357   2.204       .  S
N355        N356   1.321       .  A
N356        C360   1.351       .  A
Mn357       N495   2.203   1_545  S
Mn358      Cl359   2.548       .  S
C360        C426   1.436       .  S
C361        C410   1.437       .  S
N362        N363   1.321       .  A
N362       Mn391   2.204       .  S
N364        N366   1.316       .  A
N364        N365   1.321       .  A
N365        C371   1.351       .  A
N366        N367   1.321       .  A
N366       Mn537   2.203   1_545  S
N367        C371   1.351       .  A
N368        N369   1.321       .  A
N368       Mn380   2.204       .  S
N369        C516   1.351       .  A
C370        N515   1.351       .  A
C370        C407   1.437       .  S
C371        C428   1.436       .  S
N372        N378   1.316       .  A
N372        N373   1.322       .  A
N372       Mn402   2.206       .  S
N373        C381   1.352       .  A
N374        N375   1.322       .  A
N374        N376   1.316       .  A
N374       Mn380   2.206       .  S
N375        C382   1.352       .  A
N376        N377   1.320       .  A
N376       Mn402   2.200       .  S
N377        C382   1.350       .  A
N378        N379   1.320       .  A
N378       Mn380   2.200       .  S
N379        C381   1.350       .  A
C381        C415   1.436       .  S
C382        C431   1.436       .  S
N383        N384   1.320       .  A
N383        N389   1.316       .  A
N383       Mn391   2.200       .  S
N384        C392   1.350       .  A
N385        N387   1.316       .  A
N385        N386   1.320       .  A
N385       Mn403   2.200       .  S
N386        C393   1.350       .  A
N387        N388   1.322       .  A
N387       Mn391   2.206       .  S
N388        C393   1.352       .  A
N389        N390   1.322       .  A
N389       Mn403   2.206       .  S
N390        C392   1.352       .  A
Mn391       N512   2.203       .  S
Mn391      Cl404   2.548       .  S
C392        C417   1.436       .  S
C393        C430   1.436       .  S
N394        N395   1.321       .  A
N394        N400   1.316       .  A
N394       Mn548   2.203       .  S
N395        C405   1.351       .  A
N396        N397   1.321       .  A
N396       Mn403   2.204       .  S
N397        C406   1.351   1_655  A
N398        N399   1.321       .  A
N398       Mn402   2.204       .  S
N400        N401   1.321       .  A
N401        C405   1.351       .  A
Mn402       N540   2.203   1_545  S
Mn403      Cl404   2.548       .  S
C405        C420   1.436       .  S
C406        C414   1.437       .  S
C408        C409   1.414       .  S
C409        C410   1.207   1_655  T
C411        C412   1.207       .  T
C412        C413   1.414       .  S
C413        C414   1.207   1_655  T
C415        C416   1.206       .  T
C417        C418   1.206       .  T
C419        C420   1.206       .  T
C421        C422   1.206       .  T
C423        C424   1.206       .  T
C425        C426   1.206       .  T
C427        C428   1.206       .  T
C429        C430   1.206       .  T
C431        C432   1.206       .  T
C433        C434   1.206       .  T
C435        C436   1.206       .  T
C437        C438   1.206       .  T
C439        N440   1.358       .  A
C439        N444   1.358       .  A
C439        C580   1.436       .  S
N440        C441   1.357       .  A
C441        N442   1.356       .  A
C441        C583   1.436       .  S
N442        C443   1.356       .  A
C443        N444   1.357       .  A
C443        C581   1.436       .  S
C445        N446   1.359       .  A
C445        N450   1.358       .  A
C445        C573   1.436       .  S
N446        C447   1.357       .  A
C447        N448   1.356       .  A
C447        C575   1.436       .  S
N448        C449   1.356       .  A
C449        N450   1.357       .  A
C449        C578   1.436       .  S
C451        N452   1.358       .  A
C451        N456   1.358       .  A
C451        C571   1.436       .  S
N452        C453   1.357       .  A
C453        N454   1.356       .  A
C453        C567   1.436       .  S
N454        C455   1.356       .  A
C455        N456   1.357       .  A
C455        C570   1.436       .  S
C457        N458   1.358       .  A
C457        N462   1.358       .  A
C457        C565   1.436       .  S
N458        C459   1.357       .  A
C459        N460   1.356       .  A
C459        C564   1.436       .  S
N460        C461   1.356       .  A
C461        N462   1.357       .  A
C461        C562   1.436       .  S
N463        N464   1.321       .  A
N463       Mn492   2.204   1_554  S
N465        N467   1.316       .  A
N465        N466   1.321       .  A
N466        C472   1.351       .  A
N467        N468   1.321       .  A
N468        C472   1.351       .  A
N469        N470   1.321       .  A
N469       Mn481   2.204   1_554  S
C472        C579   1.436       .  S
N473        N479   1.316       .  A
N473        N474   1.322       .  A
N473       Mn503   2.206       .  S
N474        C482   1.352       .  A
N475        N476   1.322       .  A
N475        N477   1.316       .  A
N475       Mn481   2.206       .  S
N476        C483   1.352       .  A
N477        N478   1.320       .  A
N477       Mn503   2.200       .  S
N478        C483   1.350       .  A
N479        N480   1.320       .  A
N479       Mn481   2.200       .  S
N480        C482   1.350       .  A
C482        C568   1.436       .  S
C483        C584   1.436       .  S
N484        N485   1.320       .  A
N484        N490   1.316       .  A
N484       Mn492   2.200       .  S
N485        C493   1.350       .  A
N486        N488   1.316       .  A
N486        N487   1.320       .  A
N486       Mn504   2.200       .  S
N487        C494   1.350       .  A
N488        N489   1.322       .  A
N488       Mn492   2.206       .  S
N489        C494   1.352       .  A
N490        N491   1.322       .  A
N490       Mn504   2.206       .  S
N491        C493   1.352       .  A
Mn492      Cl505   2.548       .  S
C493        C569   1.436       .  S
C494        C582   1.436       .  S
N495        N496   1.321       .  A
N495        N501   1.316       .  A
N496        C506   1.351       .  A
N497        N498   1.321       .  A
N497       Mn504   2.204       .  S
N498        C507   1.351   1_655  A
N499        N500   1.321       .  A
N499       Mn503   2.204       .  S
N501        N502   1.321       .  A
N502        C506   1.351       .  A
Mn504      Cl505   2.548       .  S
C506        C572   1.436       .  S
C507        C556   1.437       .  S
N508        N509   1.321       .  A
N508       Mn537   2.204       .  S
N510        N512   1.316       .  A
N510        N511   1.321       .  A
N511        C517   1.351       .  A
N512        N513   1.321       .  A
N513        C517   1.351       .  A
N514        N515   1.321       .  A
N514       Mn526   2.204       .  S
C516        C553   1.437   1_545  S
C517        C574   1.436       .  S
N518        N524   1.316       .  A
N518        N519   1.322       .  A
N518       Mn548   2.206       .  S
N519        C527   1.352       .  A
N520        N521   1.322       .  A
N520        N522   1.316       .  A
N520       Mn526   2.206       .  S
N521        C528   1.352       .  A
N522        N523   1.320       .  A
N522       Mn548   2.200       .  S
N523        C528   1.350       .  A
N524        N525   1.319       .  A
N524       Mn526   2.200       .  S
N525        C527   1.350       .  A
C527        C561   1.436       .  S
C528        C577   1.436       .  S
N529        N530   1.320       .  A
N529        N535   1.316       .  A
N529       Mn537   2.200       .  S
N530        C538   1.350       .  A
N531        N533   1.316       .  A
N531        N532   1.320       .  A
N531       Mn549   2.200       .  S
N532        C539   1.350       .  A
N533        N534   1.322       .  A
N533       Mn537   2.206       .  S
N534        C539   1.352       .  A
N535        N536   1.322       .  A
N535       Mn549   2.206       .  S
N536        C538   1.352       .  A
Mn537      Cl550   2.548       .  S
C538        C563   1.436       .  S
C539        C576   1.436       .  S
N540        N541   1.321       .  A
N540        N546   1.316       .  A
N541        C551   1.351       .  A
N542        N543   1.321       .  A
N542       Mn549   2.204       .  S
N543        C552   1.351   1_655  A
N544        N545   1.321       .  A
N544       Mn548   2.204       .  S
N546        N547   1.321       .  A
N547        C551   1.351       .  A
Mn549      Cl550   2.548       .  S
C551        C566   1.436       .  S
C552        C560   1.437       .  S
C554        C555   1.414       .  S
C555        C556   1.207   1_655  T
C557        C558   1.207       .  T
C558        C559   1.414       .  S
C559        C560   1.207   1_655  T
C561        C562   1.206       .  T
C563        C564   1.206       .  T
C565        C566   1.206       .  T
C567        C568   1.206       .  T
C569        C570   1.206       .  T
C571        C572   1.206       .  T
C573        C574   1.206       .  T
C575        C576   1.206       .  T
C577        C578   1.206       .  T
C579        C580   1.206       .  T
C581        C582   1.206       .  T
C583        C584   1.206       .  T
