geometry optimzed in LAMMPS
_audit_creation_date              2020-11-30 
_audit_creation_method            'lammps2cif' 
_symmetry_space_group_name_H-M    'P1' 
_symmetry_Int_Tables_number       1 
_symmetry_cell_setting            triclinic 
loop_ 
_symmetry_equiv_pos_as_xyz 
  x,y,z 
_cell_length_a                    37.78926495222 
_cell_length_b                    37.72052474357593 
_cell_length_c                    21.75968451724907 
_cell_angle_alpha                 90.47603764437162 
_cell_angle_beta                  89.65229627615977 
_cell_angle_gamma                 126.3176195817717 
loop_ 
_atom_site_label 
_atom_site_type_symbol 
_atom_site_fract_x 
_atom_site_fract_y 
_atom_site_fract_z 
_atom_site_charge 
C1          C  0.44209187  0.92026763  0.00552101     0.02940
C2          C  0.46523233  0.91060439  0.20063864    -0.13210
C3          C  0.44746217  0.86603239  0.19542215     0.00440
C4          C  0.44408918  0.84654297  0.25490138    -0.11740
C5          C  0.43983017  0.86373388  0.06457597     0.02930
C6          C  0.43613788  0.89864935  0.06105708    -0.11160
H7          H  0.48057100  0.93200832  0.16171483     0.08520
H8          H  0.44962849  0.82224943  0.25383167     0.06050
H9          H  0.42900141  0.91038590  0.10103918     0.05900
C10         C  0.47673456  0.56723216  0.00209434     0.02940
C11         C  0.48038959  0.58896150  0.05714602    -0.13210
C12         C  0.46443967  0.61422154  0.06219109     0.00440
C13         C  0.46200413  0.63025821  0.00250929    -0.11740
C14         C  0.45865436  0.60949272  0.19311467     0.02930
C15         C  0.45993504  0.57306450  0.19842397    -0.11160
H16         H  0.49780824  0.58736232  0.09466807     0.08520
H17         H  0.46695183  0.66112492  0.00256629     0.06050
H18         H  0.45027813  0.55027936  0.16091670     0.05900
C19         C  0.43471265  0.84156860  0.12978535     0.00370
C20         C  0.41049780  0.79626583  0.13015128     0.00370
O21         O  0.27669331  0.64929551  0.05075070    -0.85540
O22         O  0.35287377  0.73477076  0.07702097    -0.82590
C23         C  0.39357553  0.76572603  0.07981954     0.97920
O24         O  0.42139635  0.76321321  0.05340992    -0.82620
O25         O  0.42658271  0.69402500  0.07491066    -0.85270
C26         C  0.41441513  0.65480102  0.07739741     1.02450
O27         O  0.38111113  0.62413495  0.04966261    -0.78030
O28         O  0.30093220  0.61063456  0.07516166    -0.78220
C29         C  0.27223077  0.61784787  0.07816086     1.02400
O30         O  0.29351154  0.66454291  0.18119669    -0.85540
O31         O  0.36439041  0.75173534  0.20733769    -0.82600
C32         C  0.39979250  0.76679268  0.17996441     0.97940
O33         O  0.41918548  0.74880189  0.18311528    -0.82630
O34         O  0.43096227  0.68435424  0.20362471    -0.85240
C35         C  0.40806538  0.64778029  0.17733154     1.02410
O36         O  0.36661174  0.62350569  0.18036695    -0.78060
O37         O  0.28405271  0.60283642  0.20461279    -0.78200
C38         C  0.27180947  0.62314315  0.17829281     1.02370
Cr39       Cr  0.32483907  0.69743599  0.25390214     1.93740
Cr40       Cr  0.41805090  0.71788042  0.25412931     1.93210
Cr41       Cr  0.33521418  0.62062904  0.25267671     1.39100
O42         O  0.35939019  0.67867652  0.25352841    -1.23290
C43         C  0.45201152  0.62401402  0.12763211     0.00370
C44         C  0.42926829  0.64218031  0.12747735     0.00370
C45         C  0.24186817  0.59994913  0.12867132     0.00370
C46         C  0.19672951  0.57506069  0.12951076     0.00370
C47         C  0.11075863  0.54929608  0.25570632     0.02940
C48         C  0.12796421  0.54546893  0.06018803    -0.13210
C49         C  0.17217472  0.56181530  0.06447001     0.00440
C50         C  0.19125450  0.56438145  0.25433393    -0.11740
C51         C  0.17431538  0.56742250  0.19553224     0.02930
C52         C  0.13644548  0.56594150  0.20200656    -0.11160
H53         H  0.10579008  0.52838774  0.09805631     0.08520
H54         H  0.21725792  0.56083965  0.25364657     0.06050
H55         H  0.12524878  0.57588332  0.16515811     0.05900
C56         C  0.92645158  0.47455874  0.24326230     0.02940
C57         C  0.90908148  0.47803173  0.18864622    -0.13210
C58         C  0.86472563  0.46114487  0.18430843     0.00440
C59         C  0.84560564  0.45825176  0.24440604    -0.11740
C60         C  0.86234279  0.45524607  0.05334049     0.02930
C61         C  0.90059600  0.45740591  0.04695477    -0.11160
H62         H  0.93121189  0.49517720  0.15075792     0.08520
H63         H  0.82104252  0.46362693  0.24468567     0.06050
H64         H  0.91196612  0.44763784  0.08379211     0.05900
C65         C  0.56241321  0.48129907  0.00068511     0.02940
C66         C  0.56720744  0.46319764  0.19704445    -0.13210
C67         C  0.60279104  0.46074485  0.19080032     0.00440
C68         C  0.62312782  0.46378567  0.99976424    -0.11740
C69         C  0.60730088  0.46649213  0.05991171     0.02930
C70         C  0.58293616  0.48346595  0.05581606    -0.11160
H71         H  0.54448085  0.45392647  0.15998390     0.08520
H72         H  0.65387975  0.46872349  0.99933132     0.06050
H73         H  0.58176538  0.50121299  0.09377977     0.05900
C74         C  0.83982628  0.44740753  0.11938633     0.00370
C75         C  0.79449036  0.42078441  0.12100788     0.00370
C76         C  0.63424685  0.43021715  0.12349550     0.00370
C77         C  0.61687065  0.45372548  0.12478949     0.00370
O78         O  0.66514261  0.29953303  0.17358837    -0.85540
O79         O  0.75147381  0.37384111  0.19826915    -0.82590
C80         C  0.76516700  0.40907352  0.17172347     0.97920
O81         O  0.74559934  0.42690235  0.17589509    -0.82620
O82         O  0.67814171  0.43424038  0.19778842    -0.85270
C83         C  0.64141475  0.41007593  0.17266597     1.02450
O84         O  0.61862715  0.36860359  0.17565140    -0.78030
O85         O  0.60237184  0.28765229  0.19784579    -0.78220
C86         C  0.62364541  0.27646588  0.17093643     1.02400
O87         O  0.65052837  0.28315647  0.04286085    -0.85540
O88         O  0.73440742  0.36138988  0.06796244    -0.82600
C89         C  0.76343392  0.40254659  0.07157637     0.97940
O90         O  0.75833670  0.42902974  0.04723212    -0.82630
O91         O  0.68750288  0.43061752  0.06905642    -0.85240
C92         C  0.64776508  0.41639732  0.07269898     1.02410
O93         O  0.61798441  0.38225436  0.04541809    -0.78060
O94         O  0.60898768  0.30411332  0.06852039    -0.78200
C95         C  0.61837799  0.27702690  0.07084394     1.02370
Cr96       Cr  0.69808305  0.33279778  0.24578356     1.93740
Cr97       Cr  0.71364247  0.42409620  0.24732015     1.93210
Cr98       Cr  0.61808442  0.33815643  0.24704759     1.39100
O99         O  0.67663322  0.36503260  0.24652987    -1.23290
C100        C  0.57463165  0.20097074  0.12000254     0.00370
C101        C  0.60127631  0.24637866  0.12061880     0.00370
C102        C  0.53538915  0.11013908  0.99331476     0.02940
C103        C  0.55605064  0.13601558  0.04661472    -0.13210
C104        C  0.56402027  0.17732199  0.05387995     0.00440
C105        C  0.56601400  0.19661765  0.24613725    -0.11740
C106        C  0.56204041  0.17708027  0.18556471     0.02930
C107        C  0.54366322  0.13237623  0.19014772    -0.11160
H108        H  0.56481169  0.12292350  0.08205116     0.08520
H109        H  0.56209859  0.22235925  0.24868031     0.06050
H110        H  0.52432958  0.11024034  0.15334449     0.05900
C111        C  0.03276050  0.48580810  0.25891442    -0.26510
C112        C  0.06391214  0.53152186  0.25334443    -0.14580
C113        C  0.04956294  0.55830282  0.99438417     0.36050
C114        C  0.00445566  0.53831754  0.99017125    -0.25960
C115        C  0.97334326  0.49254948  0.24558163    -0.15200
C116        C  0.98768504  0.46584378  0.25460947     0.37130
N117        N  0.95791329  0.41870428  0.00870059    -0.89450
H118        H  0.04370362  0.46524469  0.26549254     0.18250
H119        H  0.99347152  0.55884900  0.98358723     0.18240
N120        N  0.07942809  0.60542135  0.24002616    -0.88480
H121        H  0.96514527  0.40565982  0.22219108     0.35610
H122        H  0.92533604  0.40712803  0.25216868     0.40710
H123        H  0.11189317  0.61694063  0.99643656     0.40330
H124        H  0.07223550  0.61858754  0.02666488     0.35220
C125        C  0.54260283  0.56874481  0.00310445    -0.26510
C126        C  0.49676064  0.54337165  0.99865338    -0.14580
C127        C  0.47200615  0.49669879  0.24201392     0.36050
C128        C  0.49427179  0.47721345  0.24134947    -0.25960
C129        C  0.54037290  0.50313121  0.99739584    -0.15200
C130        C  0.56481557  0.54953047  0.00167714     0.37130
N131        N  0.61207217  0.57831987  0.00435396    -0.89450
H132        H  0.56152997  0.60423255  0.00730035     0.18250
H133        H  0.47553443  0.44174525  0.23765152     0.18240
N134        N  0.42489841  0.46850764  0.23751910    -0.88480
H135        H  0.62292255  0.59869577  0.21559056     0.35610
H136        H  0.62558126  0.56096528  0.24942545     0.40710
H137        H  0.41216064  0.48679189  0.99003364     0.40330
H138        H  0.41292699  0.44824124  0.02588901     0.35220
C139        C  0.53000233  0.04312531  0.02393964    -0.26510
C140        C  0.51074913  0.06121968  0.99590730    -0.14580
C141        C  0.48194494  0.03590926  0.22977469     0.36050
C142        C  0.46272566  0.99100545  0.23366272    -0.25960
C143        C  0.46401555  0.96854574  0.00591886    -0.15200
C144        C  0.50720234  0.99742147  0.02906112     0.37130
N145        N  0.52881508  0.98035897  0.05573877    -0.89410
H146        H  0.56332948  0.06449549  0.04109828     0.18250
H147        H  0.42945320  0.96729492  0.21731551     0.18240
N148        N  0.45616529  0.04973282  0.20818580    -0.88480
H149        H  0.53864220  0.99331647  0.10017806     0.35610
H150        H  0.55708077  0.99173004  0.02998165     0.40710
H151        H  0.42864534  0.03598840  0.23666114     0.40330
H152        H  0.44523105  0.03703253  0.16384326     0.35220
C153        C  0.46639402  0.92960118  0.25718113     0.02940
C154        C  0.48568004  0.90968464  0.44787651    -0.13210
C155        C  0.44953718  0.86518035  0.44484962     0.00440
C156        C  0.42969306  0.84587959  0.50478528    -0.11740
C157        C  0.44317955  0.86398806  0.31493595     0.02930
C158        C  0.45127687  0.90523929  0.31187149    -0.11160
H159        H  0.50227729  0.92746783  0.40636827     0.08520
H160        H  0.39701885  0.81646951  0.50558773     0.06050
H161        H  0.44859434  0.92013005  0.35257374     0.05900
C162        C  0.47646628  0.56682405  0.25181335     0.02940
C163        C  0.48012178  0.58845043  0.30697249    -0.13210
C164        C  0.46435549  0.61386027  0.31213337     0.00440
C165        C  0.46195135  0.63000426  0.25248484    -0.11740
C166        C  0.45882500  0.60942454  0.44323284     0.02930
C167        C  0.46005152  0.57299519  0.44877272    -0.11160
H168        H  0.49744438  0.58668599  0.34446913     0.08520
H169        H  0.46689986  0.66088247  0.25264234     0.06050
H170        H  0.45040129  0.55014378  0.41136341     0.05900
C171        C  0.43334764  0.84035397  0.37981230     0.00370
C172        C  0.40865265  0.79513900  0.37999074     0.00370
O173        O  0.27597043  0.64803917  0.30039683    -0.85540
O174        O  0.35116460  0.73362768  0.32669802    -0.82590
C175        C  0.39184488  0.76415957  0.33009982     0.97920
O176        O  0.41957297  0.76076668  0.30519962    -0.82620
O177        O  0.42573860  0.69281384  0.32497528    -0.85270
C178        C  0.41383869  0.65373307  0.32739279     1.02450
O179        O  0.38058612  0.62297902  0.29967482    -0.78030
O180        O  0.30049556  0.60963637  0.32518005    -0.78220
C181        C  0.27184995  0.61691445  0.32829384     1.02400
O182        O  0.29308383  0.66395264  0.43166616    -0.85540
O183        O  0.36407035  0.74999263  0.45605645    -0.82600
C184        C  0.39995821  0.76644561  0.42946396     0.97940
O185        O  0.42011894  0.74919591  0.43166692    -0.82630
O186        O  0.43145384  0.68428276  0.45354033    -0.85240
C187        C  0.40829479  0.64758554  0.42747435     1.02410
O188        O  0.36688163  0.62348196  0.43068921    -0.78060
O189        O  0.28443598  0.60261823  0.45477724    -0.78200
C190        C  0.27179360  0.62261718  0.42854026     1.02370
Cr191      Cr  0.32544840  0.69719505  0.50382485     1.93740
Cr192      Cr  0.41913221  0.71887009  0.50290623     1.93210
Cr193      Cr  0.33582901  0.62094621  0.50290371     1.39100
O194        O  0.36015309  0.67901695  0.50282416    -1.23290
C195        C  0.45203620  0.62368824  0.37765075     0.00370
C196        C  0.42904524  0.64153645  0.37748867     0.00370
C197        C  0.24171311  0.59923713  0.37895359     0.00370
C198        C  0.19660867  0.57469404  0.37967405     0.00370
C199        C  0.11077280  0.54913512  0.50591945     0.02940
C200        C  0.12791182  0.54535470  0.31017600    -0.13210
C201        C  0.17207292  0.56153675  0.31450632     0.00440
C202        C  0.19140984  0.56449970  0.50452866    -0.11740
C203        C  0.17429546  0.56725561  0.44569616     0.02930
C204        C  0.13638288  0.56569267  0.45215430    -0.11160
H205        H  0.10570140  0.52828565  0.34800942     0.08520
H206        H  0.21752857  0.56113448  0.50394666     0.06050
H207        H  0.12512574  0.57555946  0.41529900     0.05900
C208        C  0.92647337  0.47448455  0.49333484     0.02940
C209        C  0.90912338  0.47792529  0.43866064    -0.13210
C210        C  0.86478950  0.46113241  0.43428681     0.00440
C211        C  0.84570896  0.45835833  0.49438456    -0.11740
C212        C  0.86235743  0.45518686  0.30327459     0.02930
C213        C  0.90062889  0.45738542  0.29686053    -0.11160
H214        H  0.93127137  0.49501881  0.40077693     0.08520
H215        H  0.82122913  0.46384818  0.49459264     0.06050
H216        H  0.91201626  0.44761861  0.33367140     0.05900
C217        C  0.56222255  0.48098790  0.25058726     0.02940
C218        C  0.56726365  0.46323763  0.44696085    -0.13210
C219        C  0.60284912  0.46078010  0.44068887     0.00440
C220        C  0.62303578  0.46359153  0.24970461    -0.11740
C221        C  0.60724257  0.46636264  0.30981978     0.02930
C222        C  0.58283273  0.48328843  0.30569811    -0.11160
H223        H  0.54448885  0.45390688  0.40994806     0.08520
H224        H  0.65378418  0.46851252  0.24921597     0.06050
H225        H  0.58169331  0.50109546  0.34360304     0.05900
C226        C  0.83987309  0.44737681  0.36933518     0.00370
C227        C  0.79453385  0.42079079  0.37095146     0.00370
C228        C  0.63421584  0.43012440  0.37332669     0.00370
C229        C  0.61686827  0.45366624  0.37466692     0.00370
O230        O  0.66562341  0.30003692  0.42392541    -0.85540
O231        O  0.75182004  0.37421511  0.44864752    -0.82590
C232        C  0.76529366  0.40924287  0.42169399     0.97920
O233        O  0.74563099  0.42698414  0.42567769    -0.82620
O234        O  0.67821274  0.43438740  0.44768161    -0.85270
C235        C  0.64150125  0.41012739  0.42252800     1.02450
O236        O  0.61884445  0.36867225  0.42548223    -0.78030
O237        O  0.60262908  0.28769473  0.44833870    -0.78220
C238        C  0.62411823  0.27671725  0.42154497     1.02400
O239        O  0.65058033  0.28299375  0.29296137    -0.85540
O240        O  0.73444355  0.36124345  0.31796198    -0.82600
C241        C  0.76343067  0.40241961  0.32152617     0.97940
O242        O  0.75826682  0.42883127  0.29709475    -0.82630
O243        O  0.68738810  0.43031478  0.31896039    -0.85240
C244        C  0.64767020  0.41616985  0.32253948     1.02410
O245        O  0.61788122  0.38198434  0.29529249    -0.78060
O246        O  0.60921662  0.30408781  0.31903651    -0.78200
C247        C  0.61870393  0.27708764  0.32148393     1.02370
Cr248      Cr  0.69837512  0.33316114  0.49603160     1.93740
Cr249      Cr  0.71383153  0.42435847  0.49719745     1.93210
Cr250      Cr  0.61831615  0.33842429  0.49698295     1.39100
O251        O  0.67686091  0.36532217  0.49658291    -1.23290
C252        C  0.57846196  0.20146470  0.37070078     0.00370
C253        C  0.60192818  0.24658929  0.37155030     0.00370
C254        C  0.54726350  0.11468247  0.24429369     0.02940
C255        C  0.56830725  0.14185700  0.29589420    -0.13210
C256        C  0.56972715  0.17946066  0.30414829     0.00440
C257        C  0.56789282  0.19514485  0.49594172    -0.11740
C258        C  0.56733127  0.17687562  0.43595259     0.02930
C259        C  0.55460776  0.13353036  0.44045823    -0.11160
H260        H  0.58162641  0.13232295  0.32987665     0.08520
H261        H  0.56304719  0.22031494  0.49705968     0.06050
H262        H  0.54040703  0.11175408  0.40195663     0.05900
C263        C  0.03274797  0.48568131  0.50936109    -0.26510
C264        C  0.06392441  0.53138057  0.50364701    -0.14580
C265        C  0.04958453  0.55825232  0.24420728     0.36050
C266        C  0.00447869  0.53828190  0.23997573    -0.25960
C267        C  0.97336150  0.49244549  0.49572055    -0.15200
C268        C  0.98767584  0.46573477  0.50497647     0.37130
N269        N  0.95789167  0.41866034  0.25855043    -0.89450
H270        H  0.04366845  0.46511107  0.51608182     0.18250
H271        H  0.99350827  0.55882289  0.23336577     0.18240
N272        N  0.07948751  0.60527869  0.49001864    -0.88480
H273        H  0.96511886  0.40548940  0.47280785     0.35610
H274        H  0.92531296  0.40703901  0.50259117     0.40710
H275        H  0.11192636  0.61687085  0.24621880     0.40330
H276        H  0.07228887  0.61856005  0.27642993     0.35220
C277        C  0.54235861  0.56839027  0.25255203    -0.26510
C278        C  0.49650852  0.54298642  0.24823267    -0.14580
C279        C  0.47207863  0.49674101  0.49238216     0.36050
C280        C  0.49436390  0.47728235  0.49141927    -0.25960
C281        C  0.54015603  0.50278736  0.24718843    -0.15200
C282        C  0.56458811  0.54919413  0.25122816     0.37130
N283        N  0.61184783  0.57800713  0.25378236    -0.89450
H284        H  0.56127471  0.60388423  0.25661506     0.18250
H285        H  0.47564158  0.44182138  0.48759146     0.18240
N286        N  0.42496760  0.46854153  0.48793620    -0.88480
H287        H  0.62294601  0.59890112  0.46580724     0.35610
H288        H  0.62567403  0.56108434  0.49916776     0.40710
H289        H  0.41191066  0.48638530  0.23970830     0.40330
H290        H  0.41271715  0.44793647  0.27583481     0.35220
C291        C  0.54886220  0.05205703  0.27485933    -0.26510
C292        C  0.52597887  0.06694295  0.24873138    -0.14580
C293        C  0.50377733  0.03471674  0.46991396     0.36050
C294        C  0.49153075  0.99165827  0.47093743    -0.25960
C295        C  0.48594760  0.97654282  0.25879190    -0.15200
C296        C  0.52889876  0.00701140  0.28061329     0.37130
N297        N  0.55253742  0.99217830  0.30728409    -0.89410
H298        H  0.58247001  0.07531265  0.29010427     0.18250
H299        H  0.46068303  0.96570484  0.44983978     0.18240
N300        N  0.47436091  0.04244216  0.44318171    -0.88480
H301        H  0.56153287  0.00497732  0.35191703     0.35610
H302        H  0.58125454  0.00522105  0.28176336     0.40710
H303        H  0.44425970  0.02301962  0.46618395     0.40330
H304        H  0.46923550  0.03207408  0.39727716     0.35220
C305        C  0.49895767  0.93367187  0.50362837     0.02940
C306        C  0.45238168  0.90620222  0.69938008    -0.13210
C307        C  0.44425858  0.86502806  0.69453706     0.00440
C308        C  0.44452840  0.84692017  0.75360252    -0.11740
C309        C  0.44956276  0.86624232  0.56428291     0.02930
C310        C  0.48526310  0.91128663  0.56047811    -0.11160
H311        H  0.44939125  0.92112216  0.65947845     0.08520
H312        H  0.44978831  0.82243934  0.75149608     0.06050
H313        H  0.50149136  0.93021379  0.60154350     0.05900
C314        C  0.47652367  0.56684016  0.50228366     0.02940
C315        C  0.48018443  0.58859830  0.55732335    -0.13210
C316        C  0.46440395  0.61401897  0.56227786     0.00440
C317        C  0.46211791  0.63007127  0.50251377    -0.11740
C318        C  0.45871476  0.60961856  0.69325208     0.02930
C319        C  0.45996840  0.57319222  0.69875943    -0.11160
H320        H  0.49757674  0.58697347  0.59485523     0.08520
H321        H  0.46730830  0.66105002  0.50256584     0.06050
H322        H  0.45023145  0.55029644  0.66138433     0.05900
C323        C  0.43393362  0.84139095  0.62913391     0.00370
C324        C  0.40921409  0.79597824  0.62906803     0.00370
O325        O  0.27677280  0.64845257  0.55085527    -0.85540
O326        O  0.35332886  0.73335540  0.57633775    -0.82590
C327        C  0.39377894  0.76521934  0.57899717     0.97920
O328        O  0.42233615  0.76460660  0.55101792    -0.82620
O329        O  0.42665667  0.69416240  0.57477234    -0.85270
C330        C  0.41472693  0.65498127  0.57742957     1.02450
O331        O  0.38153934  0.62408494  0.54978179    -0.78030
O332        O  0.30106892  0.60999538  0.57565295    -0.78220
C333        C  0.27236616  0.61721676  0.57858630     1.02400
O334        O  0.29316002  0.66467691  0.68178925    -0.85540
O335        O  0.36389727  0.75202677  0.70715366    -0.82600
C336        C  0.39892851  0.76684513  0.67919217     0.97940
O337        O  0.41878687  0.74927176  0.68261738    -0.82630
O338        O  0.43125179  0.68506352  0.70283686    -0.85240
C339        C  0.40844357  0.64822775  0.67732328     1.02410
O340        O  0.36700815  0.62372592  0.68085952    -0.78060
O341        O  0.28454303  0.60330375  0.70484862    -0.78200
C342        C  0.27193573  0.62330511  0.67865230     1.02370
Cr343      Cr  0.32526576  0.69813933  0.75419584     1.93740
Cr344      Cr  0.41854217  0.71858845  0.75347368     1.93210
Cr345      Cr  0.33556771  0.62123456  0.75304077     1.39100
O346        O  0.35981341  0.67934035  0.75354445    -1.23290
C347        C  0.45211055  0.62405294  0.62770453     0.00370
C348        C  0.42964117  0.64251494  0.62754449     0.00370
C349        C  0.24201546  0.59972551  0.62906477     0.00370
C350        C  0.19687028  0.57505463  0.62973731     0.00370
C351        C  0.11087294  0.54942968  0.75576844     0.02940
C352        C  0.12803519  0.54533982  0.56038549    -0.13210
C353        C  0.17225753  0.56169208  0.56465770     0.00440
C354        C  0.19151186  0.56479698  0.75456285    -0.11740
C355        C  0.17448391  0.56760987  0.69570296     0.02930
C356        C  0.13655732  0.56604152  0.70206650    -0.11160
H357        H  0.10588133  0.52830963  0.59828626     0.08520
H358        H  0.21764287  0.56144103  0.75402310     0.06050
H359        H  0.12533350  0.57591092  0.66516008     0.05900
C360        C  0.92653185  0.47465306  0.74338293     0.02940
C361        C  0.90918464  0.47810682  0.68872096    -0.13210
C362        C  0.86485411  0.46130395  0.68435159     0.00440
C363        C  0.84574272  0.45847089  0.74445149    -0.11740
C364        C  0.86242930  0.45530613  0.55331298     0.02930
C365        C  0.90065593  0.45741928  0.54695154    -0.11160
H366        H  0.93132448  0.49520202  0.65082525     0.08520
H367        H  0.82125251  0.46394643  0.74470741     0.06050
H368        H  0.91202976  0.44769056  0.58383300     0.05900
C369        C  0.56233057  0.48109556  0.50048083     0.02940
C370        C  0.56742604  0.46354624  0.69692750    -0.13210
C371        C  0.60299680  0.46105616  0.69067767     0.00440
C372        C  0.62316011  0.46373983  0.49958361    -0.11740
C373        C  0.60740640  0.46658091  0.55971146     0.02930
C374        C  0.58298851  0.48347566  0.55556684    -0.11160
H375        H  0.54469358  0.45427979  0.65988244     0.08520
H376        H  0.65393489  0.46871912  0.49905247     0.06050
H377        H  0.58189551  0.50133701  0.59343600     0.05900
C378        C  0.83996505  0.44758891  0.61939719     0.00370
C379        C  0.79463848  0.42108251  0.62104896     0.00370
C380        C  0.63458312  0.43061409  0.62325989     0.00370
C381        C  0.61708131  0.45399814  0.62460396     0.00370
O382        O  0.66546494  0.30009281  0.67379211    -0.85540
O383        O  0.75170902  0.37430998  0.69850586    -0.82590
C384        C  0.76536567  0.40947724  0.67178188     0.97920
O385        O  0.74582538  0.42733416  0.67587145    -0.82620
O386        O  0.67851305  0.43484783  0.69770714    -0.85270
C387        C  0.64181560  0.41066091  0.67251251     1.02450
O388        O  0.61901611  0.36923167  0.67554807    -0.78030
O389        O  0.60273941  0.28850981  0.69744208    -0.78220
C390        C  0.62400244  0.27716678  0.67096807     1.02400
O391        O  0.65077908  0.28328816  0.54292052    -0.85540
O392        O  0.73451248  0.36155653  0.56826187    -0.82600
C393        C  0.76356146  0.40271879  0.57164571     0.97940
O394        O  0.75850460  0.42914118  0.54697034    -0.82630
O395        O  0.68766754  0.43064297  0.56888815    -0.85240
C396        C  0.64796593  0.41654606  0.57246616     1.02410
O397        O  0.61815402  0.38238768  0.54513137    -0.78060
O398        O  0.60946693  0.30449580  0.56872280    -0.78200
C399        C  0.61870163  0.27729840  0.57091345     1.02370
Cr400      Cr  0.69825310  0.33327487  0.74594079     1.93740
Cr401      Cr  0.71393480  0.42462040  0.74731506     1.93210
Cr402      Cr  0.61834401  0.33880019  0.74681184     1.39100
O403        O  0.67686643  0.36556943  0.74652479    -1.23290
C404        C  0.57758482  0.20185438  0.62032797     0.00370
C405        C  0.60176995  0.24698552  0.62084790     0.00370
C406        C  0.55744140  0.11599095  0.49582675     0.02940
C407        C  0.57162944  0.14189309  0.54983164    -0.13210
C408        C  0.57095130  0.17881613  0.55501691     0.00440
C409        C  0.56566953  0.19685211  0.74552924    -0.11740
C410        C  0.56400631  0.17783567  0.68551058     0.02930
C411        C  0.54669498  0.13343214  0.68953452    -0.11160
H412        H  0.58151190  0.13179082  0.58820136     0.08520
H413        H  0.56223022  0.22291644  0.74683849     0.06050
H414        H  0.53089859  0.11184699  0.65057534     0.05900
C415        C  0.03286566  0.48592802  0.75911014    -0.26510
C416        C  0.06401516  0.53163472  0.75341856    -0.14580
C417        C  0.04962208  0.55811711  0.49432179     0.36050
C418        C  0.00452285  0.53816561  0.49000873    -0.25960
C419        C  0.97342976  0.49264537  0.74573742    -0.15200
C420        C  0.98778242  0.46595502  0.75484764     0.37130
N421        N  0.95785731  0.41856015  0.50905829    -0.89450
H422        H  0.04381527  0.46537589  0.76575272     0.18250
H423        H  0.99357797  0.55871545  0.48324976     0.18240
N424        N  0.07951048  0.60551354  0.73993879    -0.88480
H425        H  0.96521971  0.40572986  0.72258484     0.35610
H426        H  0.92543251  0.40723760  0.75255732     0.40710
H427        H  0.11197677  0.61672126  0.49631406     0.40330
H428        H  0.07233135  0.61847727  0.52631275     0.35220
C429        C  0.54241778  0.56843525  0.50308131    -0.26510
C430        C  0.49656748  0.54301307  0.49883292    -0.14580
C431        C  0.47216583  0.49700101  0.74224192     0.36050
C432        C  0.49445096  0.47753478  0.74134959    -0.25960
C433        C  0.54025228  0.50287375  0.49714615    -0.15200
C434        C  0.56466786  0.54926971  0.50141913     0.37130
N435        N  0.61193104  0.57809872  0.50386490    -0.89450
H436        H  0.56132003  0.60392202  0.50726265     0.18250
H437        H  0.47572552  0.44207398  0.73751285     0.18240
N438        N  0.42505638  0.46879826  0.73776529    -0.88480
H439        H  0.62307333  0.59912373  0.71593586     0.35610
H440        H  0.62575033  0.56131000  0.74943530     0.40710
H441        H  0.41196352  0.48639375  0.49041675     0.40330
H442        H  0.41281800  0.44785126  0.52613077     0.35220
C443        C  0.56910090  0.05894747  0.52811911    -0.26510
C444        C  0.54358003  0.06945239  0.49744529    -0.14580
C445        C  0.48286985  0.03690275  0.73095253     0.36050
C446        C  0.46411573  0.99208834  0.73356788    -0.25960
C447        C  0.51693008  0.98115871  0.50107868    -0.15200
C448        C  0.55578389  0.01512369  0.53074501     0.37130
N449        N  0.58195061  0.00537519  0.56295564    -0.89410
H450        H  0.59957673  0.08478650  0.55001484     0.18250
H451        H  0.42996197  0.96829538  0.72091782     0.18240
N452        N  0.45653264  0.05089943  0.71296722    -0.88480
H453        H  0.58460090  0.01546968  0.60865176     0.35610
H454        H  0.61340380  0.02407461  0.54363241     0.40710
H455        H  0.42986081  0.03694991  0.74313403     0.40330
H456        H  0.44433576  0.03851385  0.66889194     0.35220
C457        C  0.46849088  0.93061568  0.75445859     0.02940
C458        C  0.43670847  0.89909815  0.94935539    -0.13210
C459        C  0.44061292  0.86431716  0.94484893     0.00440
C460        C  0.44597056  0.84980548  0.00439614    -0.11740
C461        C  0.44782702  0.86609981  0.81402041     0.02930
C462        C  0.46687771  0.91104264  0.81022563    -0.11160
H463        H  0.42997633  0.91100397  0.90962600     0.08520
H464        H  0.45634282  0.82886501  0.00325837     0.06050
H465        H  0.48234303  0.93208033  0.84986266     0.05900
C466        C  0.47659374  0.56711284  0.75217502     0.02940
C467        C  0.48033091  0.58891009  0.80720301    -0.13210
C468        C  0.46444759  0.61423272  0.81224451     0.00440
C469        C  0.46200788  0.63024717  0.75250189    -0.11740
C470        C  0.45879666  0.60971601  0.94322729     0.02930
C471        C  0.46015065  0.57334445  0.94865949    -0.11160
H472        H  0.49779150  0.58733935  0.84468794     0.08520
H473        H  0.46691218  0.66111034  0.75241929     0.06050
H474        H  0.45049680  0.55050289  0.91123481     0.05900
C475        C  0.43517096  0.84182516  0.87941498     0.00370
C476        C  0.41055077  0.79653049  0.87972691     0.00370
O477        O  0.27664709  0.64919422  0.80097775    -0.85540
O478        O  0.35269166  0.73494550  0.82664623    -0.82590
C479        C  0.39353277  0.76530895  0.82999940     0.97920
O480        O  0.42101319  0.76178001  0.80481014    -0.82620
O481        O  0.42684986  0.69372410  0.82411863    -0.85270
C482        C  0.41435979  0.65447112  0.82730481     1.02450
O483        O  0.38077656  0.62367714  0.80024578    -0.78030
O484        O  0.30062667  0.61029876  0.82543143    -0.78220
C485        C  0.27217017  0.61784623  0.82853715     1.02400
O486        O  0.29368054  0.66551909  0.93153149    -0.85540
O487        O  0.36510322  0.75298412  0.95779467    -0.82600
C488        C  0.40036031  0.76785933  0.93018843     0.97940
O489        O  0.41955773  0.74960464  0.93286735    -0.82630
O490        O  0.43147115  0.68503300  0.95344888    -0.85240
C491        C  0.40841213  0.64836899  0.92735623     1.02410
O492        O  0.36697500  0.62435859  0.93042775    -0.78060
O493        O  0.28460012  0.60394734  0.95476347    -0.78200
C494        C  0.27210978  0.62407682  0.92859257     1.02370
Cr495      Cr  0.32565776  0.69864717  0.00424108     1.93740
Cr496      Cr  0.41886768  0.71904560  0.00367093     1.93210
Cr497      Cr  0.33575089  0.62172708  0.00271904     1.39100
O498        O  0.36009970  0.67983014  0.00343157    -1.23290
C499        C  0.45211488  0.62412595  0.87773324     0.00370
C500        C  0.42937826  0.64227908  0.87755262     0.00370
C501        C  0.24201590  0.60049112  0.87908600     0.00370
C502        C  0.19686125  0.57542648  0.87975467     0.00370
C503        C  0.11076155  0.54938319  0.00576306     0.02940
C504        C  0.12807710  0.54562250  0.81028213    -0.13210
C505        C  0.17228853  0.56196992  0.81464505     0.00440
C506        C  0.19144036  0.56482529  0.00436971    -0.11740
C507        C  0.17441161  0.56775810  0.94564270     0.02930
C508        C  0.13644926  0.56611279  0.95208085    -0.11160
H509        H  0.10588912  0.52859871  0.84814899     0.08520
H510        H  0.21763021  0.56155560  0.00366429     0.06050
H511        H  0.12521418  0.57602637  0.91524661     0.05900
C512        C  0.92644454  0.47458049  0.99337897     0.02940
C513        C  0.90911699  0.47809307  0.93874798    -0.13210
C514        C  0.86478161  0.46126249  0.93437343     0.00440
C515        C  0.84564358  0.45836995  0.99446552    -0.11740
C516        C  0.86243684  0.45537125  0.80335937     0.02930
C517        C  0.90069679  0.45753408  0.79698765    -0.11160
H518        H  0.93127069  0.49524907  0.90088559     0.08520
H519        H  0.82111124  0.46378988  0.99475718     0.06050
H520        H  0.91207637  0.44779196  0.83384329     0.05900
C521        C  0.56241812  0.48131863  0.75049354     0.02940
C522        C  0.56742077  0.46357729  0.94706984    -0.13210
C523        C  0.60295558  0.46104349  0.94080033     0.00440
C524        C  0.62322050  0.46392109  0.74964719    -0.11740
C525        C  0.60740443  0.46668157  0.80978978     0.02930
C526        C  0.58298569  0.48358594  0.80563036    -0.11160
H527        H  0.54471279  0.45437506  0.91001588     0.08520
H528        H  0.65399823  0.46891154  0.74919495     0.06050
H529        H  0.58183299  0.50138503  0.84353233     0.05900
C530        C  0.83991680  0.44757221  0.86942405     0.00370
C531        C  0.79458232  0.42102278  0.87105867     0.00370
C532        C  0.63456617  0.43067157  0.87341340     0.00370
C533        C  0.61704992  0.45404243  0.87471755     0.00370
O534        O  0.66515876  0.29985190  0.92377054    -0.85540
O535        O  0.75150921  0.37407430  0.94831512    -0.82590
C536        C  0.76526555  0.40933361  0.92178810     0.97920
O537        O  0.74577870  0.42723920  0.92600654    -0.82620
O538        O  0.67845591  0.43473028  0.94778844    -0.85270
C539        C  0.64173433  0.41061545  0.92264637     1.02450
O540        O  0.61883603  0.36917452  0.92573346    -0.78030
O541        O  0.60253399  0.28845326  0.94745033    -0.78220
C542        C  0.62368758  0.27698091  0.92106347     1.02400
O543        O  0.65063212  0.28343292  0.79299923    -0.85540
O544        O  0.73445024  0.36162658  0.81813186    -0.82600
C545        C  0.76352820  0.40277496  0.82163649     0.97940
O546        O  0.75850539  0.42926441  0.79712804    -0.82630
O547        O  0.68770223  0.43084735  0.81898655    -0.85240
C548        C  0.64798968  0.41670369  0.82261024     1.02410
O549        O  0.61818300  0.38258372  0.79525101    -0.78060
O550        O  0.60919653  0.30454601  0.81848163    -0.78200
C551        C  0.61853766  0.27744716  0.82097127     1.02370
Cr552      Cr  0.69809122  0.33304913  0.99582772     1.93740
Cr553      Cr  0.71380018  0.42442751  0.99741648     1.93210
Cr554      Cr  0.61817809  0.33859724  0.99692281     1.39100
O555        O  0.67671283  0.36536240  0.99656401    -1.23290
C556        C  0.57459025  0.20168744  0.87025468     0.00370
C557        C  0.60137989  0.24698220  0.87095435     0.00370
C558        C  0.54737328  0.11511156  0.74491682     0.02940
C559        C  0.56376693  0.14044741  0.79894166    -0.13210
C560        C  0.56667988  0.17910095  0.80458237     0.00440
C561        C  0.56408070  0.19619007  0.99543214    -0.11740
C562        C  0.55958673  0.17652667  0.93496374     0.02930
C563        C  0.53742082  0.13073653  0.93823498    -0.11160
H564        H  0.57148727  0.12807783  0.83707081     0.08520
H565        H  0.56289507  0.22360281  0.99755482     0.06050
H566        H  0.52066050  0.11025536  0.89864366     0.05900
C567        C  0.03277391  0.48586757  0.00903408    -0.26510
C568        C  0.06390936  0.53158367  0.00346119    -0.14580
C569        C  0.04967483  0.55834918  0.74422080     0.36050
C570        C  0.00456468  0.53837098  0.74002779    -0.25960
C571        C  0.97333581  0.49258203  0.99574986    -0.15200
C572        C  0.98769349  0.46588824  0.00475802     0.37130
N573        N  0.95799325  0.41877769  0.75890963    -0.89450
H574        H  0.04373290  0.46531544  0.01558442     0.18250
H575        H  0.99359086  0.55890371  0.73335677     0.18240
N576        N  0.07938811  0.60547546  0.99024379    -0.88480
H577        H  0.96515811  0.40570927  0.97232369     0.35610
H578        H  0.92535126  0.40716263  0.00235486     0.40710
H579        H  0.11201531  0.61697612  0.74610958     0.40330
H580        H  0.07239051  0.61868905  0.77631184     0.35220
C581        C  0.54249849  0.56868438  0.75300029    -0.26510
C582        C  0.49664820  0.54327789  0.74867345    -0.14580
C583        C  0.47224845  0.49709126  0.99224901     0.36050
C584        C  0.49449706  0.47758915  0.99147501    -0.25960
C585        C  0.54033613  0.50311080  0.74716289    -0.15200
C586        C  0.56474627  0.54950742  0.75144365     0.37130
N587        N  0.61200545  0.57833062  0.75400780    -0.89450
H588        H  0.56140508  0.60417050  0.75719340     0.18250
H589        H  0.47574974  0.44212683  0.98762505     0.18240
N590        N  0.42514345  0.46892089  0.98767566    -0.88480
H591        H  0.62320427  0.59910652  0.96626639     0.35610
H592        H  0.62579626  0.56127450  0.99989650     0.40710
H593        H  0.41204904  0.48664516  0.74021873     0.40330
H594        H  0.41289531  0.44811046  0.77596742     0.35220
C595        C  0.55207329  0.05368927  0.76729952    -0.26510
C596        C  0.52727336  0.06790280  0.74735140    -0.14580
C597        C  0.46734252  0.03226079  0.97303994     0.36050
C598        C  0.44470173  0.98635231  0.97739200    -0.25960
C599        C  0.48892230  0.97786845  0.75317451    -0.15200
C600        C  0.53321176  0.00876930  0.77008107     0.37130
N601        N  0.55926379  0.99457127  0.78865244    -0.89410
H602        H  0.58622480  0.07749006  0.77992060     0.18250
H603        H  0.41185387  0.96456883  0.95869403     0.18240
N604        N  0.44561673  0.04927395  0.94669691    -0.88480
H605        H  0.57119855  0.00689920  0.83283395     0.35610
H606        H  0.58612662  0.00847292  0.75884832     0.40710
H607        H  0.41699624  0.03721617  0.97195591     0.40330
H608        H  0.43650761  0.03710421  0.90178881     0.35220
loop_ 
_geom_bond_atom_site_label_1 
_geom_bond_atom_site_label_2 
_geom_bond_distance 
_geom_bond_site_symmetry_2 
_ccdc_geom_bond_type 
C1            C6   1.404       .  A
C1          C458   1.403   1_554  A
C1          C143   1.488       .  S
C2            C3   1.397       .  A
C2          C153   1.406       .  A
C2            H7   1.075       .  S
C3            C4   1.461       .  A
C3           C19   1.607       .  S
C4          C157   1.467       .  A
C4            H8   1.054       .  S
C5            C6   1.407       .  A
C5          C460   1.474       .  A
C5           C19   1.605       .  S
C6            H9   1.076       .  S
C10          C11   1.406       .  A
C10         C471   1.408   1_554  A
C10         C126   1.481   1_554  S
C11          C12   1.400       .  A
C11          H16   1.076       .  S
C12          C13   1.463       .  A
C12          C43   1.604       .  S
C13         C470   1.467   1_554  A
C13          H17   1.064       .  S
C14          C15   1.409       .  A
C14         C165   1.468       .  A
C14          C43   1.604       .  S
C15         C162   1.408       .  A
C15          H18   1.076       .  S
C19          C20   1.380       .  D
C20          C23   1.432       .  S
C20          C32   1.434       .  S
O21          C29   1.251       .  A
O21        Cr495   1.960       .  S
O22          C23   1.267       .  A
O22        Cr495   1.936       .  S
C23          O24   1.247       .  A
O24        Cr496   1.934       .  S
O25          C26   1.264       .  A
O25        Cr496   1.932       .  S
C26          C44   1.436       .  S
C26          O27   1.249       .  A
O27        Cr497   1.956       .  S
O28          C29   1.266       .  A
O28        Cr497   1.930       .  S
C29          C45   1.435       .  S
O30          C38   1.264       .  A
O30         Cr39   1.922       .  S
O31          C32   1.250       .  A
O31         Cr39   1.961       .  S
C32          O33   1.262       .  A
O33         Cr40   1.929       .  S
O34          C35   1.248       .  A
O34         Cr40   1.936       .  S
C35          C44   1.432       .  S
C35          O36   1.264       .  A
O36         Cr41   1.929       .  S
O37          C38   1.249       .  A
O37         Cr41   1.939       .  S
C38          C45   1.428       .  S
Cr39        O173   1.959       .  S
Cr39        O174   1.933       .  S
Cr39         O42   1.817       .  S
Cr40        O176   1.928       .  S
Cr40        O177   1.926       .  S
Cr40         O42   1.794       .  S
Cr41        O179   1.958       .  S
Cr41        O180   1.930       .  S
Cr41         O42   1.805       .  S
C43          C44   1.381       .  D
C45          C46   1.376       .  D
C46          C51   1.602       .  S
C46          C49   1.603       .  S
C47          C52   1.407       .  A
C47         C200   1.405       .  A
C47         C112   1.477       .  S
C48          C49   1.400       .  A
C48         C503   1.405       .  A
C48          H53   1.076       .  S
C49         C506   1.465       .  A
C50          C51   1.469       .  A
C50         C201   1.466       .  A
C50          H54   1.067       .  S
C51          C52   1.405       .  A
C52          H55   1.077       .  S
C56          C57   1.405       .  A
C56         C213   1.408       .  A
C56         C115   1.476       .  S
C57          C58   1.400       .  A
C57          H62   1.076       .  S
C58          C59   1.463       .  A
C58          C74   1.605       .  S
C59         C212   1.468       .  A
C59          H63   1.061       .  S
C60          C61   1.405       .  A
C60         C515   1.468   1_554  A
C60          C74   1.603       .  S
C61         C512   1.408   1_554  A
C61          H64   1.077       .  S
C65          C70   1.408       .  A
C65         C522   1.406   1_554  A
C65         C129   1.480   1_554  S
C66          C67   1.407       .  A
C66         C217   1.406       .  A
C66          H71   1.076       .  S
C67         C220   1.467       .  A
C67          C77   1.602       .  S
C68          C69   1.463   1_556  A
C68         C523   1.468       .  A
C68          H72   1.062       .  S
C69          C70   1.402       .  A
C69          C77   1.606       .  S
C70          H73   1.076       .  S
C74          C75   1.381       .  D
C75          C89   1.433       .  S
C75          C80   1.433       .  S
C76          C83   1.434       .  S
C76          C92   1.433       .  S
C76          C77   1.381       .  D
O78          C86   1.266       .  A
O78         Cr96   1.932       .  S
O79          C80   1.250       .  A
O79         Cr96   1.959       .  S
C80          O81   1.263       .  A
O81         Cr97   1.927       .  S
O82          C83   1.248       .  A
O82         Cr97   1.934       .  S
C83          O84   1.264       .  A
O84         Cr98   1.932       .  S
O85          C86   1.249       .  A
O85         Cr98   1.940       .  S
C86         C101   1.434       .  S
O87          C95   1.249       .  A
O87        Cr552   1.955   1_554  S
O88          C89   1.265       .  A
O88        Cr552   1.937   1_554  S
C89          O90   1.246       .  A
O90        Cr553   1.926   1_554  S
O91          C92   1.263       .  A
O91        Cr553   1.929   1_554  S
C92          O93   1.247       .  A
O93        Cr554   1.952   1_554  S
O94          C95   1.266       .  A
O94        Cr554   1.932   1_554  S
C95         C101   1.433       .  S
Cr96        O239   1.955       .  S
Cr96        O240   1.939       .  S
Cr96         O99   1.817       .  S
Cr97        O242   1.926       .  S
Cr97        O243   1.929       .  S
Cr97         O99   1.797       .  S
Cr98        O245   1.955       .  S
Cr98        O246   1.932       .  S
Cr98         O99   1.807       .  S
C100        C104   1.609       .  S
C100        C106   1.606       .  S
C100        C101   1.380       .  D
C102        C103   1.413   1_556  A
C102        C563   1.411       .  A
C102        C140   1.497       .  S
C103        C104   1.409       .  A
C103        H108   1.073       .  S
C104        C561   1.462   1_554  A
C105        C106   1.469       .  A
C105        C256   1.468       .  A
C105        H109   1.066       .  S
C106        C107   1.397       .  A
C107        C254   1.405       .  A
C107        H110   1.070       .  S
C111        C112   1.404       .  A
C111        C116   1.400   1_455  A
C111        H118   1.084       .  S
C112        C265   1.414       .  A
C113        C114   1.400       .  A
C113        C568   1.414   1_556  A
C113        N576   1.439       .  S
C114        C571   1.404   1_455  A
C114        H119   1.084   1_455  S
C115        C116   1.414       .  A
C115        C266   1.404   1_655  A
C116        N269   1.439       .  S
N117        C572   1.439       .  S
N117        H577   1.045   1_554  S
N117        H578   1.044       .  S
N120        C265   1.439       .  S
N120        H275   1.042       .  S
N120        H276   1.046       .  S
H121        N269   1.045       .  S
H122        N269   1.044       .  S
H123        N576   1.042       .  S
H124        N576   1.046   1_554  S
C125        C126   1.401   1_554  A
C125        C130   1.397       .  A
C125        H132   1.085       .  S
C126        C583   1.417       .  A
C127        C128   1.407       .  A
C127        C278   1.417       .  A
C127        N134   1.438       .  S
C128        C281   1.404       .  A
C128        H133   1.084       .  S
C129        C130   1.417   1_556  A
C129        C584   1.404       .  A
C130        N131   1.440       .  S
N131        H591   1.046   1_554  S
N131        H592   1.042   1_554  S
N134        H289   1.044       .  S
N134        H290   1.045       .  S
H135        N283   1.046       .  S
H136        N283   1.042       .  S
H137        N590   1.043       .  S
H138        N590   1.045   1_554  S
C139        C140   1.403   1_554  A
C139        C144   1.403   1_545  A
C139        H146   1.083       .  S
C140        C597   1.418       .  A
C141        C142   1.396   1_545  A
C141        C292   1.415       .  A
C141        N148   1.433       .  S
C142        C295   1.394       .  A
C142        H147   1.084       .  S
C143        C144   1.414       .  A
C143        C598   1.401   1_554  A
C144        N145   1.433       .  S
N145        H149   1.046       .  S
N145        H150   1.045       .  S
N148        H151   1.046       .  S
N148        H152   1.046       .  S
C153        C158   1.405       .  A
C153        C295   1.460       .  S
C154        C305   1.412       .  A
C154        C155   1.404       .  A
C154        H159   1.079       .  S
C155        C156   1.466       .  A
C155        C171   1.601       .  S
C156        C309   1.464       .  A
C156        H160   1.064       .  S
C157        C158   1.399       .  A
C157        C171   1.596       .  S
C158        H161   1.081       .  S
C162        C163   1.406       .  A
C162        C278   1.481       .  S
C163        C164   1.400       .  A
C163        H168   1.076       .  S
C164        C165   1.464       .  A
C164        C195   1.604       .  S
C165        H169   1.065       .  S
C166        C317   1.468       .  A
C166        C167   1.408       .  A
C166        C195   1.604       .  S
C167        C314   1.408       .  A
C167        H170   1.076       .  S
C171        C172   1.376       .  D
C172        C175   1.434       .  S
C172        C184   1.426       .  S
O173        C181   1.251       .  A
O174        C175   1.264       .  A
C175        O176   1.248       .  A
O177        C178   1.262       .  A
C178        C196   1.435       .  S
C178        O179   1.249       .  A
O180        C181   1.266       .  A
C181        C197   1.433       .  S
O182        C190   1.263       .  A
O182       Cr191   1.925       .  S
O183        C184   1.248       .  A
O183       Cr191   1.936       .  S
C184        O185   1.263       .  A
O185       Cr192   1.921       .  S
O186        C187   1.250       .  A
O186       Cr192   1.940       .  S
C187        C196   1.431       .  S
C187        O188   1.263       .  A
O188       Cr193   1.924       .  S
O189        C190   1.249       .  A
O189       Cr193   1.941       .  S
C190        C197   1.430       .  S
Cr191       O325   1.953       .  S
Cr191       O326   1.935       .  S
Cr191       O194   1.804       .  S
Cr192       O328   1.952       .  S
Cr192       O329   1.933       .  S
Cr192       O194   1.805       .  S
Cr193       O331   1.953       .  S
Cr193       O332   1.935       .  S
Cr193       O194   1.805       .  S
C195        C196   1.379       .  D
C197        C198   1.376       .  D
C198        C203   1.602       .  S
C198        C201   1.605       .  S
C199        C352   1.405       .  A
C199        C204   1.406       .  A
C199        C264   1.477       .  S
C200        C201   1.400       .  A
C200        H205   1.076       .  S
C202        C353   1.465       .  A
C202        C203   1.470       .  A
C202        H206   1.067       .  S
C203        C204   1.405       .  A
C204        H207   1.077       .  S
C208        C209   1.405       .  A
C208        C365   1.408       .  A
C208        C267   1.476       .  S
C209        C210   1.400       .  A
C209        H214   1.076       .  S
C210        C211   1.464       .  A
C210        C226   1.606       .  S
C211        C364   1.468       .  A
C211        H215   1.061       .  S
C212        C213   1.405       .  A
C212        C226   1.603       .  S
C213        H216   1.077       .  S
C217        C222   1.408       .  A
C217        C281   1.480       .  S
C218        C369   1.406       .  A
C218        C219   1.407       .  A
C218        H223   1.076       .  S
C219        C372   1.467       .  A
C219        C229   1.603       .  S
C220        C221   1.463       .  A
C220        H224   1.063       .  S
C221        C222   1.402       .  A
C221        C229   1.605       .  S
C222        H225   1.076       .  S
C226        C227   1.381       .  D
C227        C241   1.434       .  S
C227        C232   1.433       .  S
C228        C235   1.433       .  S
C228        C244   1.434       .  S
C228        C229   1.381       .  D
O230        C238   1.266       .  A
O230       Cr248   1.927       .  S
O231        C232   1.250       .  A
O231       Cr248   1.959       .  S
C232        O233   1.263       .  A
O233       Cr249   1.927       .  S
O234        C235   1.248       .  A
O234       Cr249   1.935       .  S
C235        O236   1.264       .  A
O236       Cr250   1.930       .  S
O237        C238   1.249       .  A
O237       Cr250   1.940       .  S
C238        C253   1.428       .  S
O239        C247   1.249       .  A
O240        C241   1.266       .  A
C241        O242   1.246       .  A
O243        C244   1.263       .  A
C244        O245   1.248       .  A
O246        C247   1.266       .  A
C247        C253   1.436       .  S
Cr248       O391   1.954       .  S
Cr248       O392   1.936       .  S
Cr248       O251   1.817       .  S
Cr249       O394   1.927       .  S
Cr249       O395   1.929       .  S
Cr249       O251   1.796       .  S
Cr250       O397   1.957       .  S
Cr250       O398   1.925       .  S
Cr250       O251   1.807       .  S
C252        C256   1.599       .  S
C252        C258   1.614       .  S
C252        C253   1.377       .  D
C254        C255   1.404       .  A
C254        C292   1.478       .  S
C255        C256   1.397       .  A
C255        H260   1.074       .  S
C257        C408   1.464       .  A
C257        C258   1.465       .  A
C257        H261   1.068       .  S
C258        C259   1.409       .  A
C259        C406   1.414       .  A
C259        H262   1.066       .  S
C263        C264   1.404       .  A
C263        C268   1.400   1_455  A
C263        H270   1.084       .  S
C264        C417   1.414       .  A
C265        C266   1.400       .  A
C266        H271   1.084   1_455  S
C267        C418   1.404   1_655  A
C267        C268   1.414       .  A
C268        N421   1.439       .  S
N272        C417   1.439       .  S
N272        H427   1.042       .  S
N272        H428   1.046       .  S
H273        N421   1.045       .  S
H274        N421   1.044       .  S
C277        C278   1.401       .  A
C277        C282   1.397       .  A
C277        H284   1.085       .  S
C279        C430   1.417       .  A
C279        C280   1.407       .  A
C279        N286   1.438       .  S
C280        C433   1.404       .  A
C280        H285   1.084       .  S
C281        C282   1.417       .  A
C282        N283   1.440       .  S
N286        H441   1.044       .  S
N286        H442   1.045       .  S
H287        N435   1.046       .  S
H288        N435   1.042       .  S
C291        C292   1.405       .  A
C291        C296   1.399       .  A
C291        H298   1.083       .  S
C293        C444   1.415       .  A
C293        C294   1.401   1_545  A
C293        N300   1.433       .  S
C294        C447   1.404       .  A
C294        H299   1.084       .  S
C295        C296   1.404   1_565  A
C296        N297   1.432   1_545  S
N297        H301   1.046   1_565  S
N297        H302   1.045   1_565  S
N300        H303   1.046       .  S
N300        H304   1.046       .  S
C305        C310   1.415       .  A
C305        C447   1.494       .  S
C306        C457   1.408       .  A
C306        C307   1.397       .  A
C306        H311   1.081       .  S
C307        C308   1.463       .  A
C307        C323   1.596       .  S
C308        C461   1.465       .  A
C308        H312   1.054       .  S
C309        C310   1.414       .  A
C309        C323   1.605       .  S
C310        H313   1.078       .  S
C314        C315   1.407       .  A
C314        C430   1.480       .  S
C315        C316   1.401       .  A
C315        H320   1.076       .  S
C316        C317   1.463       .  A
C316        C347   1.605       .  S
C317        H321   1.064       .  S
C318        C469   1.468       .  A
C318        C319   1.409       .  A
C318        C347   1.604       .  S
C319        C466   1.408       .  A
C319        H322   1.076       .  S
C323        C324   1.383       .  D
C324        C327   1.435       .  S
C324        C336   1.434       .  S
O325        C333   1.248       .  A
O326        C327   1.268       .  A
C327        O328   1.248       .  A
O329        C330   1.266       .  A
C330        C348   1.435       .  S
C330        O331   1.249       .  A
O332        C333   1.266       .  A
C333        C349   1.434       .  S
O334        C342   1.265       .  A
O334       Cr343   1.930       .  S
O335        C336   1.247       .  A
O335       Cr343   1.952       .  S
C336        O337   1.264       .  A
O337       Cr344   1.932       .  S
O338        C339   1.247       .  A
O338       Cr344   1.932       .  S
C339        C348   1.432       .  S
C339        O340   1.264       .  A
O340       Cr345   1.933       .  S
O341        C342   1.248       .  A
O341       Cr345   1.935       .  S
C342        C349   1.429       .  S
Cr343       O477   1.952       .  S
Cr343       O478   1.941       .  S
Cr343       O346   1.818       .  S
Cr344       O480   1.924       .  S
Cr344       O481   1.929       .  S
Cr344       O346   1.796       .  S
Cr345       O483   1.953       .  S
Cr345       O484   1.933       .  S
Cr345       O346   1.807       .  S
C347        C348   1.381       .  D
C349        C350   1.377       .  D
C350        C355   1.602       .  S
C350        C353   1.604       .  S
C351        C504   1.405       .  A
C351        C356   1.406       .  A
C351        C416   1.477       .  S
C352        C353   1.401       .  A
C352        H357   1.076       .  S
C354        C505   1.465       .  A
C354        C355   1.469       .  A
C354        H358   1.067       .  S
C355        C356   1.405       .  A
C356        H359   1.077       .  S
C360        C361   1.405       .  A
C360        C517   1.408       .  A
C360        C419   1.476       .  S
C361        C362   1.400       .  A
C361        H366   1.076       .  S
C362        C363   1.464       .  A
C362        C378   1.605       .  S
C363        C516   1.468       .  A
C363        H367   1.061       .  S
C364        C365   1.405       .  A
C364        C378   1.604       .  S
C365        H368   1.077       .  S
C369        C374   1.407       .  A
C369        C433   1.480       .  S
C370        C521   1.407       .  A
C370        C371   1.408       .  A
C370        H375   1.076       .  S
C371        C524   1.468       .  A
C371        C381   1.604       .  S
C372        C373   1.463       .  A
C372        H376   1.063       .  S
C373        C374   1.402       .  A
C373        C381   1.605       .  S
C374        H377   1.076       .  S
C378        C379   1.381       .  D
C379        C393   1.433       .  S
C379        C384   1.433       .  S
C380        C387   1.432       .  S
C380        C396   1.435       .  S
C380        C381   1.381       .  D
O382        C390   1.266       .  A
O382       Cr400   1.929       .  S
O383        C384   1.250       .  A
O383       Cr400   1.959       .  S
C384        O385   1.263       .  A
O385       Cr401   1.927       .  S
O386        C387   1.248       .  A
O386       Cr401   1.934       .  S
C387        O388   1.263       .  A
O388       Cr402   1.928       .  S
O389        C390   1.248       .  A
O389       Cr402   1.936       .  S
C390        C405   1.431       .  S
O391        C399   1.249       .  A
O392        C393   1.265       .  A
C393        O394   1.247       .  A
O395        C396   1.263       .  A
C396        O397   1.249       .  A
O398        C399   1.266       .  A
C399        C405   1.429       .  S
Cr400       O543   1.955       .  S
Cr400       O544   1.936       .  S
Cr400       O403   1.817       .  S
Cr401       O546   1.927       .  S
Cr401       O547   1.929       .  S
Cr401       O403   1.797       .  S
Cr402       O549   1.955       .  S
Cr402       O550   1.928       .  S
Cr402       O403   1.807       .  S
C404        C408   1.601       .  S
C404        C410   1.599       .  S
C404        C405   1.375       .  D
C406        C407   1.411       .  A
C406        C444   1.506       .  S
C407        C408   1.412       .  A
C407        H412   1.077       .  S
C409        C560   1.465       .  A
C409        C410   1.468       .  A
C409        H413   1.065       .  S
C410        C411   1.395       .  A
C411        C558   1.402       .  A
C411        H414   1.076       .  S
C415        C416   1.404       .  A
C415        C420   1.400   1_455  A
C415        H422   1.084       .  S
C416        C569   1.414       .  A
C417        C418   1.400       .  A
C418        H423   1.084   1_455  S
C419        C570   1.405   1_655  A
C419        C420   1.414       .  A
C420        N573   1.439       .  S
N424        C569   1.439       .  S
N424        H579   1.042       .  S
N424        H580   1.046       .  S
H425        N573   1.045       .  S
H426        N573   1.044       .  S
C429        C430   1.401       .  A
C429        C434   1.396       .  A
C429        H436   1.085       .  S
C431        C582   1.417       .  A
C431        C432   1.407       .  A
C431        N438   1.438       .  S
C432        C585   1.404       .  A
C432        H437   1.084       .  S
C433        C434   1.417       .  A
C434        N435   1.440       .  S
N438        H593   1.043       .  S
N438        H594   1.045       .  S
H439        N587   1.046       .  S
H440        N587   1.042       .  S
C443        C444   1.413       .  A
C443        C448   1.416       .  A
C443        H450   1.083       .  S
C445        C596   1.409       .  A
C445        C446   1.395   1_545  A
C445        N452   1.433       .  S
C446        C599   1.397       .  A
C446        H451   1.084       .  S
C447        C448   1.408   1_565  A
C448        N449   1.431       .  S
N449        H453   1.046       .  S
N449        H454   1.045       .  S
N452        H455   1.046       .  S
N452        H456   1.046       .  S
C457        C462   1.408       .  A
C457        C599   1.464       .  S
C458        C459   1.407       .  A
C458        H463   1.076       .  S
C459        C460   1.472   1_556  A
C459        C475   1.602       .  S
C460        H464   1.070       .  S
C461        C462   1.398       .  A
C461        C475   1.608       .  S
C462        H465   1.077       .  S
C466        C467   1.406       .  A
C466        C582   1.481       .  S
C467        C468   1.400       .  A
C467        H472   1.076       .  S
C468        C469   1.464       .  A
C468        C499   1.605       .  S
C469        H473   1.065       .  S
C470        C471   1.409       .  A
C470        C499   1.603       .  S
C471        H474   1.076       .  S
C475        C476   1.379       .  D
C476        C479   1.436       .  S
C476        C488   1.430       .  S
O477        C485   1.249       .  A
O478        C479   1.267       .  A
C479        O480   1.246       .  A
O481        C482   1.262       .  A
C482        C500   1.433       .  S
C482        O483   1.248       .  A
O484        C485   1.266       .  A
C485        C501   1.432       .  S
O486        C494   1.266       .  A
O486       Cr495   1.930   1_556  S
O487        C488   1.249       .  A
O487       Cr495   1.960   1_556  S
C488        O489   1.264       .  A
O489       Cr496   1.923   1_556  S
O490        C491   1.249       .  A
O490       Cr496   1.939   1_556  S
C491        C500   1.434       .  S
C491        O492   1.264       .  A
O492       Cr497   1.928   1_556  S
O493        C494   1.248       .  A
O493       Cr497   1.937   1_556  S
C494        C501   1.430       .  S
Cr495       O498   1.814       .  S
Cr496       O498   1.797       .  S
Cr497       O498   1.806       .  S
C499        C500   1.380       .  D
C501        C502   1.376       .  D
C502        C507   1.600       .  S
C502        C505   1.604       .  S
C503        C508   1.406   1_554  A
C503        C568   1.477       .  S
C504        C505   1.400       .  A
C504        H509   1.076       .  S
C506        C507   1.468   1_554  A
C506        H510   1.067       .  S
C507        C508   1.405       .  A
C508        H511   1.077       .  S
C512        C513   1.405       .  A
C512        C571   1.476       .  S
C513        C514   1.400       .  A
C513        H518   1.076       .  S
C514        C515   1.464       .  A
C514        C530   1.605       .  S
C515        H519   1.061       .  S
C516        C517   1.405       .  A
C516        C530   1.604       .  S
C517        H520   1.077       .  S
C521        C526   1.408       .  A
C521        C585   1.480       .  S
C522        C523   1.407       .  A
C522        H527   1.076       .  S
C523        C533   1.604       .  S
C524        C525   1.464       .  A
C524        H528   1.062       .  S
C525        C526   1.402       .  A
C525        C533   1.606       .  S
C526        H529   1.076       .  S
C530        C531   1.381       .  D
C531        C545   1.433       .  S
C531        C536   1.433       .  S
C532        C539   1.433       .  S
C532        C548   1.434       .  S
C532        C533   1.381       .  D
O534        C542   1.266       .  A
O534       Cr552   1.929       .  S
O535        C536   1.250       .  A
O535       Cr552   1.959       .  S
C536        O537   1.263       .  A
O537       Cr553   1.927       .  S
O538        C539   1.248       .  A
O538       Cr553   1.934       .  S
C539        O540   1.263       .  A
O540       Cr554   1.930       .  S
O541        C542   1.247       .  A
O541       Cr554   1.933       .  S
C542        C557   1.429       .  S
O543        C551   1.250       .  A
O544        C545   1.265       .  A
C545        O546   1.246       .  A
O547        C548   1.262       .  A
C548        O549   1.248       .  A
O550        C551   1.265       .  A
C551        C557   1.433       .  S
Cr552       O555   1.818       .  S
Cr553       O555   1.797       .  S
Cr554       O555   1.807       .  S
C556        C560   1.594       .  S
C556        C562   1.606       .  S
C556        C557   1.377       .  D
C558        C559   1.403       .  A
C558        C596   1.466       .  S
C559        C560   1.400       .  A
C559        H564   1.078       .  S
C561        C562   1.465       .  A
C561        H565   1.062       .  S
C562        C563   1.406       .  A
C563        H566   1.075       .  S
C567        C568   1.404       .  A
C567        C572   1.400   1_455  A
C567        H574   1.084       .  S
C569        C570   1.400       .  A
C570        H575   1.084   1_455  S
C571        C572   1.414   1_556  A
C581        C582   1.401       .  A
C581        C586   1.397       .  A
C581        H588   1.085       .  S
C583        C584   1.407       .  A
C583        N590   1.438       .  S
C584        H589   1.084       .  S
C585        C586   1.417       .  A
C586        N587   1.440       .  S
C595        C596   1.399       .  A
C595        C600   1.398       .  A
C595        H602   1.084       .  S
C597        C598   1.409   1_545  A
C597        N604   1.432       .  S
C598        H603   1.083       .  S
C599        C600   1.409   1_565  A
C600        N601   1.433   1_545  S
N601        H605   1.046   1_565  S
N601        H606   1.046   1_565  S
N604        H607   1.045       .  S
N604        H608   1.046       .  S
