geometry optimzed in LAMMPS
_audit_creation_date              2020-11-30 
_audit_creation_method            'lammps2cif' 
_symmetry_space_group_name_H-M    'P1' 
_symmetry_Int_Tables_number       1 
_symmetry_cell_setting            triclinic 
loop_ 
_symmetry_equiv_pos_as_xyz 
  x,y,z 
_cell_length_a                    29.901026626737146 
_cell_length_b                    30.258866280277548 
_cell_length_c                    26.158761367636878 
_cell_angle_alpha                 89.30932311792277 
_cell_angle_beta                  89.28699731396864 
_cell_angle_gamma                 89.85293374660296 
loop_ 
_atom_site_label 
_atom_site_type_symbol 
_atom_site_fract_x 
_atom_site_fract_y 
_atom_site_fract_z 
_atom_site_charge 
O1          O  0.28635336  0.93722048  0.50168816    -0.71430
O2          O  0.28663875  0.06264191  0.00023812    -0.71640
O3          O  0.28650397  0.99984719  0.07348302    -0.71500
O4          O  0.28653123  0.00002816  0.42848748    -0.71510
O5          O  0.21381012  0.00031774  0.42954587    -0.71470
O6          O  0.21378315  0.00013742  0.07450382    -0.71490
O7          O  0.21408565  0.06296996  0.50126292    -0.71430
O8          O  0.21371580  0.93741281  0.00274127    -0.71620
V9          V  0.28507241  0.99992117  0.00100623     1.35240
V10         V  0.21523513  0.00018882  0.00200343     1.35170
C11         C  0.25003424  0.91587464  0.50227415     0.77810
C12         C  0.25038050  0.08424272  0.00053667     0.77870
C13         C  0.25013689  0.00006607  0.09857729     0.77740
C14         C  0.25015842  0.00018169  0.40443264     0.77700
O15         O  0.21367695  0.06312455  0.25128359    -0.71430
O16         O  0.21388015  0.93758104  0.25272165    -0.71640
O17         O  0.21375407  0.00024186  0.32452001    -0.71500
O18         O  0.21374654  0.00040747  0.17952617    -0.71510
O19         O  0.28646676  0.00026481  0.17850884    -0.71470
O20         O  0.28647456  0.00014512  0.32346607    -0.71490
O21         O  0.28649203  0.93744687  0.25173923    -0.71430
O22         O  0.28628897  0.06298733  0.25024036    -0.71620
V23         V  0.21517822  0.00033635  0.25200141     1.35240
V24         V  0.28501256  0.00022514  0.25101166     1.35170
C25         C  0.24996549  0.08452843  0.25058728     0.77810
C26         C  0.25020067  0.91604456  0.25232052     0.77870
C27         C  0.25012491  0.00018814  0.34857693     0.77740
C28         C  0.25011428  0.00025977  0.15443335     0.77700
C29         C  0.20963800  0.20305245  0.00071421     0.03480
C30         C  0.25035225  0.22597848  0.99980099    -0.12670
C31         C  0.29114445  0.20299848  0.99912991     0.00980
C32         C  0.29095293  0.15658577  0.99951539    -0.11190
C33         C  0.25046049  0.13312719  0.00016498     0.03470
C34         C  0.20995734  0.15668303  0.00066653    -0.10610
H35         H  0.25029657  0.26175456  0.99966176     0.09070
H36         H  0.32246837  0.13882763  0.99889100     0.06600
H37         H  0.17848273  0.13899973  0.00157171     0.06440
C38         C  0.20963886  0.20354011  0.25001257     0.03480
C39         C  0.20955911  0.15722710  0.25045700    -0.12670
C40         C  0.24999175  0.13345662  0.25036951     0.00980
C41         C  0.29057749  0.15676096  0.25027006    -0.11190
C42         C  0.29107217  0.20316719  0.25053705     0.03470
C43         C  0.25034643  0.22643494  0.24982861    -0.10610
H44         H  0.17789171  0.13987396  0.25072298     0.09070
H45         H  0.32197559  0.13883262  0.24951702     0.06600
H46         H  0.25026517  0.26225455  0.24996082     0.06440
C47         C  0.29130555  0.79730777  0.99956059     0.03480
C48         C  0.29075692  0.84362903  0.50101046    -0.12670
C49         C  0.25013428  0.86698372  0.50191645     0.00980
C50         C  0.20976055  0.84333745  0.50207292    -0.11190
C51         C  0.20975097  0.79687893  0.00110697     0.03470
C52         C  0.25073510  0.77414269  0.99952091    -0.10610
H53         H  0.32212928  0.86141062  0.50191393     0.09070
H54         H  0.17820082  0.86099334  0.50332806     0.06600
H55         H  0.25118823  0.73842322  0.99724657     0.06440
C56         C  0.29085116  0.79698143  0.25139299     0.03480
C57         C  0.24998739  0.77426781  0.25021099    -0.12670
C58         C  0.20928965  0.79747415  0.25018515     0.00980
C59         C  0.20965057  0.84381660  0.25149925    -0.11190
C60         C  0.25018728  0.86712515  0.25208212     0.03470
C61         C  0.29064671  0.84340501  0.25203503    -0.10610
H62         H  0.24978144  0.73853023  0.24820317     0.09070
H63         H  0.17821236  0.86167141  0.25245315     0.06600
H64         H  0.32214355  0.86099279  0.25293915     0.06440
C65         C  0.45946888  0.70264751  0.00053057     0.03480
C66         C  0.00003514  0.72581789  0.00059100    -0.12670
C67         C  0.04102381  0.70308679  0.99903066     0.00980
C68         C  0.04102462  0.65665508  0.99807646    -0.11190
C69         C  0.00065875  0.63299791  0.99820914     0.03470
C70         C  0.46002865  0.65634181  0.99908115    -0.10610
H71         H  0.99957462  0.76153737  0.00286258     0.09070
H72         H  0.07258916  0.63900665  0.99684468     0.06600
H73         H  0.42866165  0.63855225  0.99815859     0.06440
C74         C  0.04158398  0.70248669  0.24992321     0.03480
C75         C  0.00090006  0.72571616  0.24994085    -0.12670
C76         C  0.46002124  0.70302637  0.24878905     0.00980
C77         C  0.46019663  0.65660207  0.24813395    -0.11190
C78         C  0.00064190  0.63285970  0.24804554     0.03470
C79         C  0.04119391  0.65614586  0.24859920    -0.10610
H80         H  0.00112950  0.76145304  0.25195764     0.09070
H81         H  0.42868926  0.63903123  0.24725193     0.06600
H82         H  0.07262237  0.63827508  0.24761598     0.06440
C83         C  0.45939454  0.29700367  0.00095813     0.03480
C84         C  0.50016371  0.27398264  0.00026821    -0.12670
C85         C  0.04090059  0.29686811  0.99935146     0.00980
C86         C  0.04062929  0.34323771  0.99940117    -0.11190
C87         C  0.00015268  0.36683414  0.99992012     0.03470
C88         C  0.45963404  0.34341619  0.00057651    -0.10610
H89         H  0.50018363  0.23820655  0.00040786     0.09070
H90         H  0.07212176  0.36089011  0.99849425     0.06600
H91         H  0.42813651  0.36120507  0.00121630     0.06440
C92         C  0.45982092  0.29679014  0.24964215     0.03480
C93         C  0.00056187  0.27354882  0.25038608    -0.12670
C94         C  0.04125394  0.29647023  0.25021868     0.00980
C95         C  0.04130148  0.34278286  0.24975285    -0.11190
C96         C  0.00085254  0.36652787  0.24980457     0.03470
C97         C  0.46028375  0.34319782  0.24989281    -0.10610
H98         H  0.00066749  0.23772911  0.25026311     0.09070
H99         H  0.07295763  0.36015585  0.24949397     0.06600
H100        H  0.42887468  0.36110778  0.25062091     0.06440
O101        O  0.03705759  0.56253074  0.99739906    -0.71430
O102        O  0.03672500  0.43702598  0.49885133    -0.71640
O103        O  0.03699959  0.49984254  0.42562552    -0.71500
O104        O  0.03697242  0.49964118  0.07057840    -0.71510
O105        O  0.46425143  0.49996256  0.07164140    -0.71470
O106        O  0.46427874  0.50015026  0.42664016    -0.71490
O107        O  0.46404697  0.43734775  0.99988018    -0.71430
O108        O  0.46446535  0.56277890  0.49843850    -0.71620
V109        V  0.03550131  0.49974971  0.99812373     1.35240
V110        V  0.46566412  0.50006195  0.99911969     1.35170
C111        C  0.50076461  0.58410693  0.99785775     0.77810
C112        C  0.50028539  0.41571837  0.99956893     0.77870
C113        C  0.00064867  0.49992495  0.40154915     0.77740
C114        C  0.00062681  0.49979212  0.09569415     0.77700
O115        O  0.46431137  0.56254188  0.24838620    -0.71430
O116        O  0.46452208  0.43698969  0.24989366    -0.71640
O117        O  0.46432974  0.49972141  0.32161581    -0.71500
O118        O  0.46432162  0.49983458  0.17666410    -0.71510
O119        O  0.03704206  0.49973194  0.17560466    -0.71470
O120        O  0.03705001  0.49959095  0.32060353    -0.71490
O121        O  0.03713411  0.43686791  0.24886107    -0.71430
O122        O  0.03692323  0.56239989  0.24739208    -0.71620
V123        V  0.46578858  0.49975782  0.24911614     1.35240
V124        V  0.03562291  0.49965020  0.24812607     1.35170
C125        C  0.00060706  0.58394033  0.24780012     0.77810
C126        C  0.00085233  0.41545628  0.24956154     0.77870
C127        C  0.00067955  0.49973325  0.34569358     0.77740
C128        C  0.00066848  0.49978672  0.15155032     0.77700
C129        C  0.08456725  0.72672099  0.25049020    -0.05110
C130        C  0.09262914  0.76048512  0.21428851    -0.32540
C131        C  0.13309790  0.78369066  0.21363614     0.36710
C132        C  0.16632108  0.77321538  0.24959181    -0.05470
C133        C  0.15826255  0.73944509  0.28578711    -0.32440
C134        C  0.11779497  0.71623766  0.28643723     0.36610
H135        H  0.06767356  0.76846301  0.18591221     0.16980
O136        O  0.14073846  0.81512870  0.17630887    -0.59940
H137        H  0.18321652  0.73146852  0.31416572     0.17000
O138        O  0.11015799  0.68479417  0.32375901    -0.60030
H139        H  0.12892377  0.65909944  0.31397728     0.43990
H140        H  0.12195778  0.84081856  0.18607095     0.43950
C141        C  0.33392683  0.77248168  0.25090985    -0.05110
C142        C  0.36786003  0.78511128  0.21614207    -0.32540
C143        C  0.40911401  0.76308819  0.21521515     0.36710
C144        C  0.41696018  0.72755089  0.24930328    -0.05470
C145        C  0.38303064  0.71492792  0.28407909    -0.32440
C146        C  0.34177684  0.73695148  0.28500629     0.36610
H147        H  0.36217290  0.81188886  0.18910210     0.16980
O148        O  0.44074482  0.77515794  0.17927077    -0.59940
H149        H  0.38871718  0.68814896  0.31111744     0.17000
O150        O  0.31014607  0.72488397  0.32095171    -0.60030
H151        H  0.29816120  0.69622727  0.30929670     0.43990
H152        H  0.45273519  0.80380994  0.19093346     0.43950
C153        C  0.16679534  0.77240567  0.00075182    -0.05110
C154        C  0.13306353  0.78579976  0.46696988    -0.32540
C155        C  0.09191548  0.76384881  0.46618440     0.36710
C156        C  0.08397473  0.72756792  0.99939730    -0.05470
C157        C  0.11769490  0.71421290  0.03319644    -0.32440
C158        C  0.15884320  0.73616347  0.03398105     0.36610
H159        H  0.13883165  0.81310203  0.44054133     0.16980
O160        O  0.06052418  0.77671971  0.43115018    -0.59940
H161        H  0.11192682  0.68691119  0.05962575     0.17000
O162        O  0.19023504  0.72329403  0.06901524    -0.60030
H163        H  0.20212666  0.69468114  0.05658604     0.43990
H164        H  0.04863271  0.80533234  0.44358042     0.43950
C165        C  0.41641435  0.72689415  0.00088893    -0.05110
C166        C  0.40890628  0.76021770  0.46414972    -0.32540
C167        C  0.36826566  0.78326366  0.46309969     0.36710
C168        C  0.33435460  0.77305230  0.99918777    -0.05470
C169        C  0.34185234  0.73973363  0.03591107    -0.32440
C170        C  0.38249193  0.71668680  0.03695990     0.36610
H171        H  0.43443897  0.76793892  0.43567977     0.16980
O172        O  0.36118840  0.81428155  0.42532920    -0.59940
H173        H  0.31632102  0.73201363  0.06438309     0.17000
O174        O  0.38956682  0.68566642  0.07472816    -0.60030
H175        H  0.37135632  0.65974805  0.06521554     0.43990
H176        H  0.37940468  0.84019831  0.43483359     0.43950
C177        C  0.33424412  0.22719723  0.25087692    -0.05110
C178        C  0.34276283  0.26038970  0.21411888    -0.32540
C179        C  0.38354400  0.28310603  0.21310983     0.36710
C180        C  0.41666452  0.27273356  0.24927846    -0.05470
C181        C  0.40814962  0.23953431  0.28603001    -0.32440
C182        C  0.36736932  0.21681572  0.28703659     0.36610
H183        H  0.31795197  0.26825873  0.18554289     0.16980
O184        O  0.39156904  0.31397049  0.17524325    -0.59940
H185        H  0.43295932  0.23166649  0.31460770     0.17000
O186        O  0.35934801  0.18594451  0.32489650    -0.60030
H187        H  0.37798881  0.15999089  0.31573370     0.43990
H188        H  0.37291193  0.33991871  0.18438388     0.43950
C189        C  0.08404066  0.27216624  0.24989433    -0.05110
C190        C  0.10235565  0.25733554  0.29612314    -0.32540
C191        C  0.14365326  0.23536796  0.29653852     0.36710
C192        C  0.16686890  0.22787151  0.25034663    -0.05470
C193        C  0.14855731  0.24270828  0.20411941    -0.32440
C194        C  0.10726119  0.26467699  0.20370396     0.36610
H195        H  0.08474318  0.26314540  0.33186213     0.16980
O196        O  0.16096491  0.22095452  0.34209352    -0.59940
H197        H  0.16616854  0.23689615  0.16838017     0.17000
O198        O  0.08995206  0.27909228  0.15814857    -0.60030
H199        H  0.07212496  0.25396730  0.14553001     0.43990
H200        H  0.17879280  0.24607992  0.35470956     0.43950
C201        C  0.41644092  0.27269082  0.00092509    -0.05110
C202        C  0.38381353  0.28438489  0.46517359    -0.32540
C203        C  0.34286063  0.26213196  0.46416737     0.36710
C204        C  0.33407497  0.22734948  0.99919556    -0.05470
C205        C  0.36681147  0.21566011  0.03495119    -0.32440
C206        C  0.40776343  0.23791284  0.03595814     0.36610
H207        H  0.39025208  0.31054336  0.43741305     0.16980
O208        O  0.31239037  0.27320765  0.42732712    -0.59940
H209        H  0.36037510  0.18949888  0.06270895     0.17000
O210        O  0.43823348  0.22683639  0.07279842    -0.60030
H211        H  0.45055459  0.19773898  0.06257333     0.43990
H212        H  0.30005790  0.30229776  0.43756211     0.43950
C213        C  0.16659132  0.22736164  0.00075878    -0.05110
C214        C  0.13364429  0.21586234  0.46574145    -0.32540
C215        C  0.09258354  0.23810220  0.46479486     0.36710
C216        C  0.08392498  0.27252208  0.99933187    -0.05470
C217        C  0.11697954  0.28405440  0.03436615    -0.32440
C218        C  0.15803896  0.26181497  0.03531328     0.36610
H219        H  0.13987717  0.18976604  0.43855252     0.16980
O220        O  0.06189180  0.22739398  0.42841970    -0.59940
H221        H  0.11074727  0.31015089  0.06155504     0.17000
O222        O  0.18872803  0.27252069  0.07169243    -0.60030
H223        H  0.20050225  0.30193029  0.06124243     0.43990
H224        H  0.05010423  0.19799393  0.43888673     0.43950
O225        O  0.28633046  0.93720911  0.00168963    -0.71430
O226        O  0.28670156  0.06265158  0.50024008    -0.71640
O227        O  0.28654357  0.99985573  0.57348539    -0.71500
O228        O  0.28649117  0.00001698  0.92849023    -0.71510
O229        O  0.21377000  0.00028508  0.92954412    -0.71470
O230        O  0.21382277  0.00016666  0.57450066    -0.71490
O231        O  0.21402279  0.06293780  0.00126096    -0.71430
O232        O  0.21373871  0.93744379  0.50273893    -0.71620
V233        V  0.28511407  0.99993188  0.50100610     1.35240
V234        V  0.21527683  0.00022007  0.50200281     1.35170
C235        C  0.25001702  0.91585341  0.00227614     0.77810
C236        C  0.25045055  0.08426362  0.50054086     0.77870
C237        C  0.25017445  0.00008317  0.59857691     0.77740
C238        C  0.25012027  0.00016151  0.90443317     0.77700
O239        O  0.21367664  0.06312394  0.75128378    -0.71430
O240        O  0.21387967  0.93758049  0.75269715    -0.71640
O241        O  0.21373214  0.00022970  0.82450862    -0.71500
O242        O  0.21376768  0.00041808  0.67951408    -0.71510
O243        O  0.28648790  0.00027073  0.67852060    -0.71470
O244        O  0.28645266  0.00013734  0.82347834    -0.71490
O245        O  0.28649154  0.93744615  0.75174430    -0.71430
O246        O  0.28628866  0.06298655  0.75026059    -0.71620
V247        V  0.21517782  0.00033571  0.75198958     1.35240
V248        V  0.28501216  0.00022435  0.75102382     1.35170
C249        C  0.24996521  0.08452775  0.75060000     0.77810
C250        C  0.25020021  0.91604397  0.75230867     0.77870
C251        C  0.25009670  0.00017444  0.84857743     0.77740
C252        C  0.25014174  0.00027117  0.65443310     0.77700
C253        C  0.20974424  0.20308432  0.50072954     0.03480
C254        C  0.25046448  0.22599948  0.49981512    -0.12670
C255        C  0.29125051  0.20300832  0.49913889     0.00980
C256        C  0.29104643  0.15659547  0.49952341    -0.11190
C257        C  0.25054691  0.13314804  0.50017458     0.03470
C258        C  0.21005095  0.15671505  0.50068099    -0.10610
H259        H  0.25041837  0.26177560  0.49967578     0.09070
H260        H  0.32255696  0.13882889  0.49889522     0.06600
H261        H  0.17857139  0.13904031  0.50158685     0.06440
C262        C  0.20963886  0.20353969  0.75002385     0.03480
C263        C  0.20955897  0.15722660  0.75047272    -0.12670
C264        C  0.24999154  0.13345598  0.75038527     0.00980
C265        C  0.29057735  0.15676024  0.75028428    -0.11190
C266        C  0.29107219  0.20316654  0.75054728     0.03470
C267        C  0.25034653  0.22643436  0.74983639    -0.10610
H268        H  0.17789153  0.13987352  0.75073992     0.09070
H269        H  0.32197537  0.13883179  0.74953126     0.06600
H270        H  0.25026541  0.26225403  0.74996464     0.06440
C271        C  0.29130024  0.79732233  0.49955401     0.03480
C272        C  0.29075464  0.84361466  0.00101642    -0.12670
C273        C  0.25012790  0.86696239  0.00191828     0.00980
C274        C  0.20975838  0.84330910  0.00206979    -0.11190
C275        C  0.20974550  0.79690710  0.50111141     0.03470
C276        C  0.25072588  0.77416406  0.49951978    -0.10610
H277        H  0.32212376  0.86140161  0.00192291     0.09070
H278        H  0.17819546  0.86095957  0.00332151     0.06600
H279        H  0.25117288  0.73844454  0.49724547     0.06440
C280        C  0.29085100  0.79698104  0.75138350     0.03480
C281        C  0.24998737  0.77426725  0.75020170    -0.12670
C282        C  0.20928964  0.79747350  0.75017368     0.00980
C283        C  0.20965038  0.84381602  0.75148448    -0.11190
C284        C  0.25018699  0.86712466  0.75206789     0.03470
C285        C  0.29064646  0.84340463  0.75202328    -0.10610
H286        H  0.24978151  0.73852952  0.74819659     0.09070
H287        H  0.17821210  0.86167075  0.75243749     0.06600
H288        H  0.32214324  0.86099247  0.75292809     0.06440
C289        C  0.45946340  0.70266149  0.50052389     0.03480
C290        C  0.00002583  0.72583860  0.50059026    -0.12670
C291        C  0.04101830  0.70311437  0.49903480     0.00980
C292        C  0.04102660  0.65668277  0.49807890    -0.11190
C293        C  0.00066487  0.63301861  0.49820682     0.03470
C294        C  0.46003073  0.65635563  0.49907458    -0.10610
H295        H  0.99955912  0.76155795  0.50286274     0.09070
H296        H  0.07259426  0.63903967  0.49685018     0.06600
H297        H  0.42866699  0.63856070  0.49814857     0.06440
C298        C  0.04158369  0.70248685  0.74992907     0.03480
C299        C  0.00089983  0.72571632  0.74994446    -0.12670
C300        C  0.46002107  0.70302641  0.74879371     0.00980
C301        C  0.46019645  0.65660206  0.74814191    -0.11190
C302        C  0.00064171  0.63285973  0.74805623     0.03470
C303        C  0.04119366  0.65614593  0.74860933    -0.10610
H304        H  0.00112930  0.76145336  0.75195799     0.09070
H305        H  0.42868911  0.63903116  0.74725994     0.06600
H306        H  0.07262215  0.63827514  0.74762707     0.06440
C307        C  0.45950032  0.29701297  0.50096581     0.03480
C308        C  0.50027551  0.27400290  0.50028292    -0.12670
C309        C  0.04100641  0.29689925  0.49936726     0.00980
C310        C  0.04072244  0.34326905  0.49941540    -0.11190
C311        C  0.00023857  0.36685431  0.49992835     0.03470
C312        C  0.45972706  0.34342524  0.50058193    -0.10610
H313        H  0.50030474  0.23822678  0.50042407     0.09070
H314        H  0.07220996  0.36093001  0.49850962     0.06600
H315        H  0.42822449  0.36120551  0.50121639     0.06440
C316        C  0.45982086  0.29679015  0.74963961     0.03480
C317        C  0.00056180  0.27354886  0.75038632    -0.12670
C318        C  0.04125395  0.29647024  0.75021382     0.00980
C319        C  0.04130152  0.34278296  0.74974166    -0.11190
C320        C  0.00085261  0.36652802  0.74979310     0.03470
C321        C  0.46028381  0.34319793  0.74988465    -0.10610
H322        H  0.00066737  0.23772909  0.75026847     0.09070
H323        H  0.07295768  0.36015597  0.74948026     0.06600
H324        H  0.42887480  0.36110799  0.75061257     0.06440
O325        O  0.03707997  0.56256090  0.49739676    -0.71430
O326        O  0.03666280  0.43699457  0.99884969    -0.71640
O327        O  0.03696045  0.49981402  0.92562866    -0.71500
O328        O  0.03701163  0.49967279  0.57058013    -0.71510
O329        O  0.46429058  0.49997258  0.57163845    -0.71470
O330        O  0.46423963  0.50014218  0.92663807    -0.71490
O331        O  0.46410910  0.43735667  0.49988133    -0.71430
O332        O  0.46444297  0.56276818  0.99843997    -0.71620
V333        V  0.03554234  0.49978015  0.49812308     1.35240
V334        V  0.46570511  0.50007191  0.49911928     1.35170
C335        C  0.50078137  0.58412746  0.49785561     0.77810
C336        C  0.50035480  0.41573854  0.49957224     0.77870
C337        C  0.00061150  0.49990852  0.90154964     0.77740
C338        C  0.00066402  0.49981096  0.59569354     0.77700
O339        O  0.46431136  0.56254208  0.74838003    -0.71430
O340        O  0.46452210  0.43698992  0.74987518    -0.71640
O341        O  0.46430862  0.49971599  0.82160435    -0.71500
O342        O  0.46434273  0.49984080  0.67665204    -0.71510
O343        O  0.03706318  0.49974265  0.67561586    -0.71470
O344        O  0.03702889  0.49958094  0.82061543    -0.71490
O345        O  0.03713413  0.43686810  0.74886210    -0.71430
O346        O  0.03692321  0.56240000  0.74741499    -0.71620
V347        V  0.46578859  0.49975808  0.74910425     1.35240
V348        V  0.03562292  0.49965040  0.74813771     1.35170
C349        C  0.00060701  0.58394044  0.74780996     0.77810
C350        C  0.00085237  0.41545648  0.74955109     0.77870
C351        C  0.00065224  0.49972251  0.84569391     0.77740
C352        C  0.00069580  0.49979885  0.65154980     0.77700
C353        C  0.08456694  0.72672116  0.75049183    -0.05110
C354        C  0.09262803  0.76048198  0.71428572    -0.32540
C355        C  0.13309702  0.78368709  0.71362884     0.36710
C356        C  0.16632119  0.77321459  0.74958426    -0.05470
C357        C  0.15826349  0.73944758  0.78578392    -0.32440
C358        C  0.11779568  0.71624060  0.78643857     0.36610
H359        H  0.06767164  0.76845753  0.68590951     0.16980
O360        O  0.14073673  0.81512192  0.67629772    -0.59940
H361        H  0.18321825  0.73147336  0.81416246     0.17000
O362        O  0.11015957  0.68480037  0.82376426    -0.60030
H363        H  0.12892484  0.65910463  0.81398481     0.43990
H364        H  0.12195671  0.84081285  0.68605771     0.43950
C365        C  0.33392662  0.77248139  0.75090395    -0.05110
C366        C  0.36786083  0.78510921  0.71613666    -0.32540
C367        C  0.40911487  0.76308624  0.71521316     0.36710
C368        C  0.41696007  0.72755092  0.74930438    -0.05470
C369        C  0.38302953  0.71492978  0.78407975    -0.32440
C370        C  0.34177565  0.73695319  0.78500349     0.36610
H371        H  0.36217443  0.81188527  0.68909445     0.16980
O372        O  0.44074672  0.77515401  0.67926908    -0.59940
H373        H  0.38871531  0.68815239  0.81112039     0.17000
O374        O  0.31014378  0.72488763  0.82094853    -0.60030
H375        H  0.29815944  0.69623015  0.80929529     0.43990
H376        H  0.45273640  0.80380693  0.69092977     0.43950
C377        C  0.16678633  0.77243976  0.50076268    -0.05110
C378        C  0.13307381  0.78576341  0.96695620    -0.32540
C379        C  0.09192577  0.76381270  0.96617092     0.36710
C380        C  0.08396578  0.72760162  0.49940787    -0.05470
C381        C  0.11768581  0.71424732  0.53320761    -0.32440
C382        C  0.15883395  0.73619795  0.53399230     0.36610
H383        H  0.13884213  0.81306521  0.94052704     0.16980
O384        O  0.06053486  0.77668253  0.93113568    -0.59940
H385        H  0.11191849  0.68694463  0.55963578     0.17000
O386        O  0.19022637  0.72332778  0.56902555    -0.60030
H387        H  0.20211563  0.69471359  0.55659740     0.43990
H388        H  0.04864488  0.80529672  0.94356298     0.43950
C389        C  0.41640561  0.72690232  0.50087687    -0.05110
C390        C  0.40891501  0.76020967  0.96416186    -0.32540
C391        C  0.36827422  0.78325552  0.96311190     0.36710
C392        C  0.33434601  0.77306088  0.49917579    -0.05470
C393        C  0.34184258  0.73974015  0.53589705    -0.32440
C394        C  0.38248211  0.71669301  0.53694572     0.36610
H395        H  0.43444695  0.76792971  0.93569062     0.16980
O396        O  0.36119615  0.81427230  0.92534048    -0.59940
H397        H  0.31631122  0.73202010  0.56436900     0.17000
O398        O  0.38955648  0.68567182  0.57471316    -0.60030
H399        H  0.37134911  0.65975234  0.56519696     0.43990
H400        H  0.37940847  0.84019123  0.93484677     0.43950
C401        C  0.33424419  0.22719665  0.75088395    -0.05110
C402        C  0.34276158  0.26038766  0.71412376    -0.32540
C403        C  0.38354261  0.28310418  0.71311168     0.36710
C404        C  0.41666439  0.27273346  0.74927945    -0.05470
C405        C  0.40815081  0.23953563  0.78603316    -0.32440
C406        C  0.36737065  0.21681680  0.78704272     0.36610
H407        H  0.31794979  0.26825538  0.68554837     0.16980
O408        O  0.39156626  0.31396698  0.67524289    -0.59940
H409        H  0.43296147  0.23166909  0.81461021     0.17000
O410        O  0.35935076  0.18594706  0.82490461    -0.60030
H411        H  0.37799163  0.15999327  0.81574261     0.43990
H412        H  0.37290869  0.33991523  0.68438221     0.43950
C413        C  0.08404067  0.27216606  0.74989303    -0.05110
C414        C  0.10233904  0.25731177  0.79612101    -0.32540
C415        C  0.14363682  0.23534463  0.79654105     0.36710
C416        C  0.16686898  0.22787142  0.75035435    -0.05470
C417        C  0.14857407  0.24273186  0.70412796    -0.32440
C418        C  0.10727782  0.26470020  0.70370787     0.36610
H419        H  0.08471398  0.26310368  0.83185626     0.16980
O420        O  0.16093350  0.22091083  0.84209547    -0.59940
H421        H  0.16619792  0.23693776  0.66839245     0.17000
O422        O  0.08998380  0.27913607  0.65815306    -0.60030
H423        H  0.07216030  0.25401739  0.64551192     0.43990
H424        H  0.17875772  0.24603003  0.85473392     0.43950
C425        C  0.41655273  0.27269041  0.50092442    -0.05110
C426        C  0.38369884  0.28439053  0.96517972    -0.32540
C427        C  0.34274579  0.26213725  0.96417292     0.36710
C428        C  0.33418687  0.22734935  0.49919579    -0.05470
C429        C  0.36692314  0.21566024  0.53495191    -0.32440
C430        C  0.40787528  0.23791328  0.53595862     0.36610
H431        H  0.39013658  0.31055087  0.93742135     0.16980
O432        O  0.31227415  0.27321584  0.92733532    -0.59940
H433        H  0.36048509  0.18950153  0.56271234     0.17000
O434        O  0.43834391  0.22684004  0.57280160    -0.60030
H435        H  0.45067028  0.19774493  0.56257598     0.43990
H436        H  0.29993945  0.30230340  0.93757641     0.43950
C437        C  0.16670311  0.22740276  0.50076826    -0.05110
C438        C  0.13353136  0.21581900  0.96573387    -0.32540
C439        C  0.09247034  0.23805951  0.96478707     0.36710
C440        C  0.08403643  0.27256258  0.49934195    -0.05470
C441        C  0.11709194  0.28409697  0.53437463    -0.32440
C442        C  0.15815200  0.26185751  0.53532133     0.36610
H443        H  0.13976467  0.18972305  0.93854462     0.16980
O444        O  0.06177826  0.22735168  0.92841217    -0.59940
H445        H  0.11085882  0.31019252  0.56156449     0.17000
O446        O  0.18884131  0.27256268  0.57170038    -0.60030
H447        H  0.20062133  0.30196872  0.56124529     0.43990
H448        H  0.04998529  0.19795501  0.93888411     0.43950
O449        O  0.78635336  0.93722048  0.50168816    -0.71430
O450        O  0.78663875  0.06264191  0.00023812    -0.71640
O451        O  0.78650397  0.99984719  0.07348302    -0.71500
O452        O  0.78653123  0.00002817  0.42848748    -0.71510
O453        O  0.71381012  0.00031774  0.42954586    -0.71470
O454        O  0.71378315  0.00013742  0.07450382    -0.71490
O455        O  0.71408565  0.06296996  0.50126292    -0.71430
O456        O  0.71371580  0.93741281  0.00274127    -0.71620
V457        V  0.78507241  0.99992117  0.00100623     1.35240
V458        V  0.71523513  0.00018882  0.00200343     1.35170
C459        C  0.75003424  0.91587464  0.50227415     0.77810
C460        C  0.75038050  0.08424272  0.00053667     0.77870
C461        C  0.75013689  0.00006607  0.09857729     0.77740
C462        C  0.75015842  0.00018169  0.40443264     0.77700
O463        O  0.71367695  0.06312455  0.25128358    -0.71430
O464        O  0.71388015  0.93758105  0.25272165    -0.71640
O465        O  0.71375407  0.00024186  0.32452001    -0.71500
O466        O  0.71374654  0.00040747  0.17952616    -0.71510
O467        O  0.78646676  0.00026481  0.17850884    -0.71470
O468        O  0.78647456  0.00014512  0.32346606    -0.71490
O469        O  0.78649203  0.93744687  0.25173923    -0.71430
O470        O  0.78628897  0.06298733  0.25024036    -0.71620
V471        V  0.71517822  0.00033635  0.25200141     1.35240
V472        V  0.78501256  0.00022514  0.25101166     1.35170
C473        C  0.74996549  0.08452843  0.25058728     0.77810
C474        C  0.75020067  0.91604456  0.25232052     0.77870
C475        C  0.75012491  0.00018814  0.34857693     0.77740
C476        C  0.75011428  0.00025977  0.15443335     0.77700
C477        C  0.70963800  0.20305245  0.00071421     0.03480
C478        C  0.75035225  0.22597848  0.99980100    -0.12670
C479        C  0.79114445  0.20299848  0.99912991     0.00980
C480        C  0.79095293  0.15658577  0.99951539    -0.11190
C481        C  0.75046049  0.13312719  0.00016498     0.03470
C482        C  0.70995734  0.15668302  0.00066653    -0.10610
H483        H  0.75029657  0.26175456  0.99966177     0.09070
H484        H  0.82246837  0.13882763  0.99889100     0.06600
H485        H  0.67848273  0.13899973  0.00157171     0.06440
C486        C  0.70963886  0.20354011  0.25001257     0.03480
C487        C  0.70955911  0.15722710  0.25045699    -0.12670
C488        C  0.74999175  0.13345662  0.25036951     0.00980
C489        C  0.79057749  0.15676096  0.25027006    -0.11190
C490        C  0.79107217  0.20316719  0.25053705     0.03470
C491        C  0.75034643  0.22643494  0.24982862    -0.10610
H492        H  0.67789171  0.13987396  0.25072297     0.09070
H493        H  0.82197559  0.13883262  0.24951703     0.06600
H494        H  0.75026517  0.26225455  0.24996082     0.06440
C495        C  0.79130555  0.79730777  0.99956059     0.03480
C496        C  0.79075692  0.84362904  0.50101046    -0.12670
C497        C  0.75013428  0.86698372  0.50191645     0.00980
C498        C  0.70976055  0.84333745  0.50207292    -0.11190
C499        C  0.70975097  0.79687893  0.00110697     0.03470
C500        C  0.75073510  0.77414269  0.99952091    -0.10610
H501        H  0.82212928  0.86141062  0.50191393     0.09070
H502        H  0.67820082  0.86099334  0.50332806     0.06600
H503        H  0.75118823  0.73842322  0.99724658     0.06440
C504        C  0.79085116  0.79698143  0.25139299     0.03480
C505        C  0.74998739  0.77426781  0.25021099    -0.12670
C506        C  0.70928965  0.79747415  0.25018515     0.00980
C507        C  0.70965057  0.84381660  0.25149925    -0.11190
C508        C  0.75018728  0.86712515  0.25208212     0.03470
C509        C  0.79064671  0.84340501  0.25203502    -0.10610
H510        H  0.74978144  0.73853023  0.24820317     0.09070
H511        H  0.67821236  0.86167142  0.25245314     0.06600
H512        H  0.82214355  0.86099279  0.25293915     0.06440
C513        C  0.95946888  0.70264751  0.00053057     0.03480
C514        C  0.50003514  0.72581789  0.00059100    -0.12670
C515        C  0.54102381  0.70308679  0.99903066     0.00980
C516        C  0.54102462  0.65665508  0.99807646    -0.11190
C517        C  0.50065875  0.63299791  0.99820914     0.03470
C518        C  0.96002865  0.65634181  0.99908115    -0.10610
H519        H  0.49957462  0.76153737  0.00286258     0.09070
H520        H  0.57258916  0.63900665  0.99684468     0.06600
H521        H  0.92866165  0.63855225  0.99815859     0.06440
C522        C  0.54158398  0.70248669  0.24992321     0.03480
C523        C  0.50090006  0.72571616  0.24994085    -0.12670
C524        C  0.96002124  0.70302637  0.24878905     0.00980
C525        C  0.96019663  0.65660207  0.24813395    -0.11190
C526        C  0.50064190  0.63285970  0.24804554     0.03470
C527        C  0.54119391  0.65614586  0.24859920    -0.10610
H528        H  0.50112950  0.76145304  0.25195764     0.09070
H529        H  0.92868926  0.63903123  0.24725193     0.06600
H530        H  0.57262237  0.63827508  0.24761598     0.06440
C531        C  0.95939454  0.29700367  0.00095813     0.03480
C532        C  0.00016371  0.27398264  0.00026820    -0.12670
C533        C  0.54090059  0.29686811  0.99935146     0.00980
C534        C  0.54062929  0.34323771  0.99940117    -0.11190
C535        C  0.50015268  0.36683414  0.99992012     0.03470
C536        C  0.95963404  0.34341619  0.00057650    -0.10610
H537        H  0.00018363  0.23820655  0.00040785     0.09070
H538        H  0.57212176  0.36089011  0.99849426     0.06600
H539        H  0.92813651  0.36120507  0.00121630     0.06440
C540        C  0.95982092  0.29679014  0.24964216     0.03480
C541        C  0.50056187  0.27354882  0.25038607    -0.12670
C542        C  0.54125394  0.29647023  0.25021868     0.00980
C543        C  0.54130148  0.34278287  0.24975285    -0.11190
C544        C  0.50085254  0.36652787  0.24980457     0.03470
C545        C  0.96028375  0.34319782  0.24989282    -0.10610
H546        H  0.50066749  0.23772911  0.25026310     0.09070
H547        H  0.57295763  0.36015585  0.24949398     0.06600
H548        H  0.92887468  0.36110778  0.25062091     0.06440
O549        O  0.53705759  0.56253074  0.99739906    -0.71430
O550        O  0.53672500  0.43702598  0.49885133    -0.71640
O551        O  0.53699959  0.49984254  0.42562552    -0.71500
O552        O  0.53697242  0.49964118  0.07057840    -0.71510
O553        O  0.96425143  0.49996256  0.07164140    -0.71470
O554        O  0.96427874  0.50015026  0.42664016    -0.71490
O555        O  0.96404697  0.43734775  0.99988018    -0.71430
O556        O  0.96446535  0.56277889  0.49843850    -0.71620
V557        V  0.53550131  0.49974971  0.99812374     1.35240
V558        V  0.96566412  0.50006195  0.99911969     1.35170
C559        C  0.00076461  0.58410693  0.99785774     0.77810
C560        C  0.00028539  0.41571837  0.99956893     0.77870
C561        C  0.50064867  0.49992495  0.40154915     0.77740
C562        C  0.50062681  0.49979212  0.09569415     0.77700
O563        O  0.96431137  0.56254188  0.24838620    -0.71430
O564        O  0.96452208  0.43698969  0.24989366    -0.71640
O565        O  0.96432974  0.49972141  0.32161581    -0.71500
O566        O  0.96432162  0.49983458  0.17666410    -0.71510
O567        O  0.53704206  0.49973194  0.17560466    -0.71470
O568        O  0.53705001  0.49959095  0.32060353    -0.71490
O569        O  0.53713411  0.43686791  0.24886107    -0.71430
O570        O  0.53692323  0.56239989  0.24739208    -0.71620
V571        V  0.96578858  0.49975782  0.24911613     1.35240
V572        V  0.53562291  0.49965020  0.24812607     1.35170
C573        C  0.50060706  0.58394033  0.24780012     0.77810
C574        C  0.50085233  0.41545628  0.24956154     0.77870
C575        C  0.50067955  0.49973325  0.34569358     0.77740
C576        C  0.50066848  0.49978672  0.15155032     0.77700
C577        C  0.58456726  0.72672099  0.25049020    -0.05110
C578        C  0.59262914  0.76048512  0.21428851    -0.32540
C579        C  0.63309790  0.78369066  0.21363613     0.36710
C580        C  0.66632108  0.77321538  0.24959181    -0.05470
C581        C  0.65826255  0.73944509  0.28578711    -0.32440
C582        C  0.61779497  0.71623766  0.28643723     0.36610
H583        H  0.56767356  0.76846301  0.18591220     0.16980
O584        O  0.64073846  0.81512870  0.17630886    -0.59940
H585        H  0.68321652  0.73146852  0.31416572     0.17000
O586        O  0.61015800  0.68479417  0.32375901    -0.60030
H587        H  0.62892377  0.65909944  0.31397728     0.43990
H588        H  0.62195778  0.84081856  0.18607095     0.43950
C589        C  0.83392683  0.77248168  0.25090985    -0.05110
C590        C  0.86786003  0.78511128  0.21614207    -0.32540
C591        C  0.90911401  0.76308819  0.21521515     0.36710
C592        C  0.91696018  0.72755089  0.24930328    -0.05470
C593        C  0.88303064  0.71492792  0.28407909    -0.32440
C594        C  0.84177684  0.73695148  0.28500628     0.36610
H595        H  0.86217290  0.81188886  0.18910210     0.16980
O596        O  0.94074482  0.77515794  0.17927077    -0.59940
H597        H  0.88871718  0.68814896  0.31111744     0.17000
O598        O  0.81014607  0.72488397  0.32095170    -0.60030
H599        H  0.79816119  0.69622726  0.30929670     0.43990
H600        H  0.95273519  0.80380994  0.19093346     0.43950
C601        C  0.66679534  0.77240567  0.00075182    -0.05110
C602        C  0.63306353  0.78579976  0.46696988    -0.32540
C603        C  0.59191548  0.76384881  0.46618440     0.36710
C604        C  0.58397473  0.72756792  0.99939730    -0.05470
C605        C  0.61769490  0.71421291  0.03319644    -0.32440
C606        C  0.65884320  0.73616348  0.03398105     0.36610
H607        H  0.63883165  0.81310203  0.44054132     0.16980
O608        O  0.56052418  0.77671971  0.43115017    -0.59940
H609        H  0.61192682  0.68691119  0.05962575     0.17000
O610        O  0.69023504  0.72329403  0.06901524    -0.60030
H611        H  0.70212666  0.69468114  0.05658605     0.43990
H612        H  0.54863271  0.80533234  0.44358041     0.43950
C613        C  0.91641436  0.72689415  0.00088893    -0.05110
C614        C  0.90890628  0.76021770  0.46414972    -0.32540
C615        C  0.86826566  0.78326366  0.46309969     0.36710
C616        C  0.83435460  0.77305230  0.99918777    -0.05470
C617        C  0.84185234  0.73973363  0.03591107    -0.32440
C618        C  0.88249193  0.71668680  0.03695990     0.36610
H619        H  0.93443897  0.76793892  0.43567978     0.16980
O620        O  0.86118841  0.81428155  0.42532921    -0.59940
H621        H  0.81632102  0.73201362  0.06438309     0.17000
O622        O  0.88956681  0.68566641  0.07472816    -0.60030
H623        H  0.87135632  0.65974804  0.06521554     0.43990
H624        H  0.87940469  0.84019831  0.43483359     0.43950
C625        C  0.83424412  0.22719724  0.25087692    -0.05110
C626        C  0.84276282  0.26038970  0.21411889    -0.32540
C627        C  0.88354400  0.28310603  0.21310984     0.36710
C628        C  0.91666452  0.27273356  0.24927847    -0.05470
C629        C  0.90814962  0.23953431  0.28603001    -0.32440
C630        C  0.86736932  0.21681572  0.28703660     0.36610
H631        H  0.81795197  0.26825873  0.18554289     0.16980
O632        O  0.89156904  0.31397049  0.17524325    -0.59940
H633        H  0.93295932  0.23166649  0.31460770     0.17000
O634        O  0.85934801  0.18594451  0.32489650    -0.60030
H635        H  0.87798880  0.15999089  0.31573371     0.43990
H636        H  0.87291193  0.33991871  0.18438388     0.43950
C637        C  0.58404066  0.27216624  0.24989433    -0.05110
C638        C  0.60235567  0.25733557  0.29612315    -0.32540
C639        C  0.64365328  0.23536799  0.29653853     0.36710
C640        C  0.66686890  0.22787152  0.25034663    -0.05470
C641        C  0.64855729  0.24270825  0.20411940    -0.32440
C642        C  0.60726118  0.26467696  0.20370395     0.36610
H643        H  0.58474321  0.26314546  0.33186214     0.16980
O644        O  0.66096494  0.22095458  0.34209353    -0.59940
H645        H  0.66616850  0.23689609  0.16838016     0.17000
O646        O  0.58995203  0.27909222  0.15814856    -0.60030
H647        H  0.57212492  0.25396723  0.14553003     0.43990
H648        H  0.67879283  0.24607999  0.35470954     0.43950
C649        C  0.91644092  0.27269082  0.00092509    -0.05110
C650        C  0.88381353  0.28438489  0.46517359    -0.32540
C651        C  0.84286063  0.26213196  0.46416737     0.36710
C652        C  0.83407497  0.22734948  0.99919556    -0.05470
C653        C  0.86681147  0.21566011  0.03495118    -0.32440
C654        C  0.90776344  0.23791284  0.03595814     0.36610
H655        H  0.89025208  0.31054336  0.43741305     0.16980
O656        O  0.81239037  0.27320765  0.42732711    -0.59940
H657        H  0.86037510  0.18949888  0.06270895     0.17000
O658        O  0.93823349  0.22683638  0.07279842    -0.60030
H659        H  0.95055459  0.19773897  0.06257332     0.43990
H660        H  0.80005790  0.30229776  0.43756211     0.43950
C661        C  0.66659132  0.22736164  0.00075879    -0.05110
C662        C  0.63364429  0.21586235  0.46574144    -0.32540
C663        C  0.59258354  0.23810220  0.46479486     0.36710
C664        C  0.58392498  0.27252208  0.99933188    -0.05470
C665        C  0.61697954  0.28405440  0.03436616    -0.32440
C666        C  0.65803896  0.26181497  0.03531329     0.36610
H667        H  0.63987717  0.18976605  0.43855251     0.16980
O668        O  0.56189180  0.22739398  0.42841969    -0.59940
H669        H  0.61074727  0.31015089  0.06155505     0.17000
O670        O  0.68872803  0.27252068  0.07169244    -0.60030
H671        H  0.70050225  0.30193029  0.06124244     0.43990
H672        H  0.55010423  0.19799394  0.43888672     0.43950
O673        O  0.78633046  0.93720911  0.00168963    -0.71430
O674        O  0.78670156  0.06265158  0.50024008    -0.71640
O675        O  0.78654357  0.99985573  0.57348539    -0.71500
O676        O  0.78649117  0.00001698  0.92849023    -0.71510
O677        O  0.71377000  0.00028508  0.92954411    -0.71470
O678        O  0.71382277  0.00016666  0.57450066    -0.71490
O679        O  0.71402279  0.06293780  0.00126096    -0.71430
O680        O  0.71373871  0.93744379  0.50273893    -0.71620
V681        V  0.78511407  0.99993188  0.50100610     1.35240
V682        V  0.71527683  0.00022007  0.50200281     1.35170
C683        C  0.75001703  0.91585341  0.00227614     0.77810
C684        C  0.75045055  0.08426362  0.50054086     0.77870
C685        C  0.75017445  0.00008317  0.59857691     0.77740
C686        C  0.75012027  0.00016151  0.90443317     0.77700
O687        O  0.71367664  0.06312394  0.75128378    -0.71430
O688        O  0.71387967  0.93758048  0.75269715    -0.71640
O689        O  0.71373214  0.00022969  0.82450862    -0.71500
O690        O  0.71376768  0.00041808  0.67951407    -0.71510
O691        O  0.78648790  0.00027073  0.67852060    -0.71470
O692        O  0.78645266  0.00013734  0.82347833    -0.71490
O693        O  0.78649154  0.93744615  0.75174429    -0.71430
O694        O  0.78628866  0.06298655  0.75026059    -0.71620
V695        V  0.71517782  0.00033571  0.75198957     1.35240
V696        V  0.78501216  0.00022434  0.75102382     1.35170
C697        C  0.74996521  0.08452774  0.75060000     0.77810
C698        C  0.75020021  0.91604396  0.75230867     0.77870
C699        C  0.75009670  0.00017444  0.84857743     0.77740
C700        C  0.75014174  0.00027117  0.65443309     0.77700
C701        C  0.70974424  0.20308432  0.50072954     0.03480
C702        C  0.75046448  0.22599948  0.49981511    -0.12670
C703        C  0.79125051  0.20300832  0.49913889     0.00980
C704        C  0.79104642  0.15659547  0.49952341    -0.11190
C705        C  0.75054691  0.13314804  0.50017458     0.03470
C706        C  0.71005095  0.15671505  0.50068099    -0.10610
H707        H  0.75041837  0.26177560  0.49967577     0.09070
H708        H  0.82255696  0.13882889  0.49889522     0.06600
H709        H  0.67857139  0.13904031  0.50158685     0.06440
C710        C  0.70963886  0.20353969  0.75002386     0.03480
C711        C  0.70955897  0.15722660  0.75047273    -0.12670
C712        C  0.74999154  0.13345597  0.75038528     0.00980
C713        C  0.79057735  0.15676024  0.75028428    -0.11190
C714        C  0.79107219  0.20316654  0.75054729     0.03470
C715        C  0.75034653  0.22643436  0.74983640    -0.10610
H716        H  0.67789153  0.13987352  0.75073993     0.09070
H717        H  0.82197537  0.13883179  0.74953126     0.06600
H718        H  0.75026541  0.26225403  0.74996465     0.06440
C719        C  0.79130024  0.79732233  0.49955401     0.03480
C720        C  0.79075464  0.84361466  0.00101642    -0.12670
C721        C  0.75012790  0.86696239  0.00191828     0.00980
C722        C  0.70975838  0.84330910  0.00206978    -0.11190
C723        C  0.70974550  0.79690710  0.50111140     0.03470
C724        C  0.75072588  0.77416406  0.49951978    -0.10610
H725        H  0.82212376  0.86140161  0.00192291     0.09070
H726        H  0.67819546  0.86095957  0.00332151     0.06600
H727        H  0.75117288  0.73844454  0.49724547     0.06440
C728        C  0.79085100  0.79698104  0.75138349     0.03480
C729        C  0.74998737  0.77426725  0.75020170    -0.12670
C730        C  0.70928964  0.79747350  0.75017368     0.00980
C731        C  0.70965038  0.84381602  0.75148448    -0.11190
C732        C  0.75018700  0.86712466  0.75206789     0.03470
C733        C  0.79064646  0.84340463  0.75202328    -0.10610
H734        H  0.74978151  0.73852952  0.74819659     0.09070
H735        H  0.67821210  0.86167075  0.75243749     0.06600
H736        H  0.82214324  0.86099247  0.75292808     0.06440
C737        C  0.95946340  0.70266149  0.50052389     0.03480
C738        C  0.50002583  0.72583860  0.50059025    -0.12670
C739        C  0.54101830  0.70311437  0.49903479     0.00980
C740        C  0.54102660  0.65668277  0.49807890    -0.11190
C741        C  0.50066487  0.63301861  0.49820682     0.03470
C742        C  0.96003073  0.65635563  0.49907458    -0.10610
H743        H  0.49955912  0.76155795  0.50286274     0.09070
H744        H  0.57259426  0.63903967  0.49685017     0.06600
H745        H  0.92866699  0.63856070  0.49814857     0.06440
C746        C  0.54158369  0.70248685  0.74992907     0.03480
C747        C  0.50089983  0.72571632  0.74994447    -0.12670
C748        C  0.96002107  0.70302641  0.74879371     0.00980
C749        C  0.96019645  0.65660206  0.74814191    -0.11190
C750        C  0.50064171  0.63285973  0.74805624     0.03470
C751        C  0.54119366  0.65614593  0.74860933    -0.10610
H752        H  0.50112929  0.76145336  0.75195800     0.09070
H753        H  0.92868911  0.63903116  0.74725993     0.06600
H754        H  0.57262215  0.63827515  0.74762708     0.06440
C755        C  0.95950032  0.29701297  0.50096581     0.03480
C756        C  0.00027551  0.27400289  0.50028292    -0.12670
C757        C  0.54100641  0.29689925  0.49936726     0.00980
C758        C  0.54072244  0.34326905  0.49941540    -0.11190
C759        C  0.50023857  0.36685431  0.49992835     0.03470
C760        C  0.95972706  0.34342523  0.50058193    -0.10610
H761        H  0.00030474  0.23822678  0.50042407     0.09070
H762        H  0.57220997  0.36093001  0.49850962     0.06600
H763        H  0.92822449  0.36120551  0.50121639     0.06440
C764        C  0.95982086  0.29679015  0.74963961     0.03480
C765        C  0.50056180  0.27354886  0.75038633    -0.12670
C766        C  0.54125395  0.29647024  0.75021383     0.00980
C767        C  0.54130152  0.34278296  0.74974166    -0.11190
C768        C  0.50085261  0.36652802  0.74979310     0.03470
C769        C  0.96028381  0.34319793  0.74988465    -0.10610
H770        H  0.50066737  0.23772909  0.75026848     0.09070
H771        H  0.57295768  0.36015597  0.74948026     0.06600
H772        H  0.92887480  0.36110799  0.75061257     0.06440
O773        O  0.53707997  0.56256091  0.49739676    -0.71430
O774        O  0.53666280  0.43699457  0.99884969    -0.71640
O775        O  0.53696045  0.49981402  0.92562866    -0.71500
O776        O  0.53701163  0.49967279  0.57058013    -0.71510
O777        O  0.96429058  0.49997258  0.57163845    -0.71470
O778        O  0.96423963  0.50014218  0.92663807    -0.71490
O779        O  0.96410910  0.43735666  0.49988133    -0.71430
O780        O  0.96444297  0.56276818  0.99843996    -0.71620
V781        V  0.53554234  0.49978015  0.49812308     1.35240
V782        V  0.96570511  0.50007191  0.49911928     1.35170
C783        C  0.00078137  0.58412746  0.49785561     0.77810
C784        C  0.00035480  0.41573854  0.49957224     0.77870
C785        C  0.50061150  0.49990852  0.90154965     0.77740
C786        C  0.50066402  0.49981097  0.59569354     0.77700
O787        O  0.96431136  0.56254208  0.74838003    -0.71430
O788        O  0.96452211  0.43698992  0.74987518    -0.71640
O789        O  0.96430862  0.49971599  0.82160435    -0.71500
O790        O  0.96434273  0.49984080  0.67665204    -0.71510
O791        O  0.53706318  0.49974265  0.67561586    -0.71470
O792        O  0.53702889  0.49958094  0.82061543    -0.71490
O793        O  0.53713413  0.43686810  0.74886210    -0.71430
O794        O  0.53692321  0.56240000  0.74741499    -0.71620
V795        V  0.96578859  0.49975808  0.74910424     1.35240
V796        V  0.53562292  0.49965041  0.74813771     1.35170
C797        C  0.50060701  0.58394044  0.74780996     0.77810
C798        C  0.50085237  0.41545648  0.74955109     0.77870
C799        C  0.50065224  0.49972251  0.84569392     0.77740
C800        C  0.50069580  0.49979885  0.65154981     0.77700
C801        C  0.58456694  0.72672116  0.75049183    -0.05110
C802        C  0.59262803  0.76048198  0.71428572    -0.32540
C803        C  0.63309702  0.78368709  0.71362884     0.36710
C804        C  0.66632119  0.77321459  0.74958426    -0.05470
C805        C  0.65826349  0.73944758  0.78578392    -0.32440
C806        C  0.61779568  0.71624060  0.78643857     0.36610
H807        H  0.56767164  0.76845753  0.68590951     0.16980
O808        O  0.64073673  0.81512192  0.67629772    -0.59940
H809        H  0.68321825  0.73147336  0.81416246     0.17000
O810        O  0.61015957  0.68480037  0.82376427    -0.60030
H811        H  0.62892484  0.65910463  0.81398482     0.43990
H812        H  0.62195671  0.84081285  0.68605771     0.43950
C813        C  0.83392662  0.77248139  0.75090395    -0.05110
C814        C  0.86786083  0.78510920  0.71613666    -0.32540
C815        C  0.90911487  0.76308624  0.71521315     0.36710
C816        C  0.91696007  0.72755092  0.74930438    -0.05470
C817        C  0.88302953  0.71492978  0.78407975    -0.32440
C818        C  0.84177565  0.73695319  0.78500349     0.36610
H819        H  0.86217443  0.81188526  0.68909445     0.16980
O820        O  0.94074672  0.77515401  0.67926908    -0.59940
H821        H  0.88871531  0.68815239  0.81112039     0.17000
O822        O  0.81014379  0.72488763  0.82094853    -0.60030
H823        H  0.79815944  0.69623015  0.80929529     0.43990
H824        H  0.95273640  0.80380693  0.69092976     0.43950
C825        C  0.66678633  0.77243976  0.50076268    -0.05110
C826        C  0.63307381  0.78576341  0.96695620    -0.32540
C827        C  0.59192577  0.76381270  0.96617092     0.36710
C828        C  0.58396578  0.72760162  0.49940786    -0.05470
C829        C  0.61768581  0.71424732  0.53320761    -0.32440
C830        C  0.65883395  0.73619795  0.53399230     0.36610
H831        H  0.63884213  0.81306521  0.94052704     0.16980
O832        O  0.56053486  0.77668253  0.93113567    -0.59940
H833        H  0.61191849  0.68694463  0.55963578     0.17000
O834        O  0.69022637  0.72332778  0.56902554    -0.60030
H835        H  0.70211563  0.69471360  0.55659740     0.43990
H836        H  0.54864488  0.80529672  0.94356298     0.43950
C837        C  0.91640561  0.72690232  0.50087687    -0.05110
C838        C  0.90891501  0.76020967  0.96416186    -0.32540
C839        C  0.86827422  0.78325552  0.96311190     0.36710
C840        C  0.83434601  0.77306088  0.49917579    -0.05470
C841        C  0.84184257  0.73974015  0.53589705    -0.32440
C842        C  0.88248210  0.71669301  0.53694572     0.36610
H843        H  0.93444695  0.76792971  0.93569062     0.16980
O844        O  0.86119615  0.81427230  0.92534049    -0.59940
H845        H  0.81631122  0.73202010  0.56436900     0.17000
O846        O  0.88955647  0.68567181  0.57471316    -0.60030
H847        H  0.87134911  0.65975234  0.56519695     0.43990
H848        H  0.87940847  0.84019123  0.93484677     0.43950
C849        C  0.83424419  0.22719665  0.75088395    -0.05110
C850        C  0.84276158  0.26038767  0.71412377    -0.32540
C851        C  0.88354261  0.28310418  0.71311168     0.36710
C852        C  0.91666439  0.27273346  0.74927945    -0.05470
C853        C  0.90815081  0.23953563  0.78603315    -0.32440
C854        C  0.86737065  0.21681680  0.78704272     0.36610
H855        H  0.81794979  0.26825539  0.68554838     0.16980
O856        O  0.89156625  0.31396699  0.67524290    -0.59940
H857        H  0.93296147  0.23166908  0.81461020     0.17000
O858        O  0.85935077  0.18594705  0.82490461    -0.60030
H859        H  0.87799164  0.15999327  0.81574260     0.43990
H860        H  0.87290868  0.33991524  0.68438222     0.43950
C861        C  0.58404067  0.27216606  0.74989304    -0.05110
C862        C  0.60233904  0.25731177  0.79612102    -0.32540
C863        C  0.64363682  0.23534463  0.79654105     0.36710
C864        C  0.66686898  0.22787142  0.75035436    -0.05470
C865        C  0.64857407  0.24273186  0.70412797    -0.32440
C866        C  0.60727782  0.26470021  0.70370787     0.36610
H867        H  0.58471398  0.26310367  0.83185627     0.16980
O868        O  0.66093349  0.22091082  0.84209547    -0.59940
H869        H  0.66619792  0.23693777  0.66839246     0.17000
O870        O  0.58998381  0.27913608  0.65815307    -0.60030
H871        H  0.57216031  0.25401741  0.64551192     0.43990
H872        H  0.67875771  0.24603002  0.85473393     0.43950
C873        C  0.91655273  0.27269041  0.50092442    -0.05110
C874        C  0.88369884  0.28439053  0.96517972    -0.32540
C875        C  0.84274579  0.26213725  0.96417292     0.36710
C876        C  0.83418687  0.22734935  0.49919579    -0.05470
C877        C  0.86692314  0.21566024  0.53495191    -0.32440
C878        C  0.90787528  0.23791328  0.53595862     0.36610
H879        H  0.89013658  0.31055087  0.93742135     0.16980
O880        O  0.81227414  0.27321584  0.92733532    -0.59940
H881        H  0.86048509  0.18950153  0.56271234     0.17000
O882        O  0.93834391  0.22684004  0.57280160    -0.60030
H883        H  0.95067027  0.19774492  0.56257598     0.43990
H884        H  0.79993945  0.30230340  0.93757641     0.43950
C885        C  0.66670311  0.22740276  0.50076826    -0.05110
C886        C  0.63353136  0.21581900  0.96573387    -0.32540
C887        C  0.59247034  0.23805951  0.96478708     0.36710
C888        C  0.58403643  0.27256259  0.49934194    -0.05470
C889        C  0.61709194  0.28409697  0.53437463    -0.32440
C890        C  0.65815200  0.26185751  0.53532133     0.36610
H891        H  0.63976467  0.18972305  0.93854463     0.16980
O892        O  0.56177826  0.22735168  0.92841217    -0.59940
H893        H  0.61085882  0.31019252  0.56156449     0.17000
O894        O  0.68884131  0.27256268  0.57170039    -0.60030
H895        H  0.70062133  0.30196871  0.56124530     0.43990
H896        H  0.54998529  0.19795501  0.93888412     0.43950
loop_ 
_geom_bond_atom_site_label_1 
_geom_bond_atom_site_label_2 
_geom_bond_distance 
_geom_bond_site_symmetry_2 
_ccdc_geom_bond_type 
O1           C11   1.265       .  A
O1          V233   1.898       .  S
O2           C12   1.264       .  A
O2            V9   1.898   1_545  S
O3           C13   1.263   1_565  A
O3            V9   1.897       .  S
O4           C14   1.263       .  A
O4          V233   1.897   1_545  S
O5           C14   1.263       .  A
O5          V234   1.896       .  S
O6           C13   1.263       .  A
O6           V10   1.896       .  S
O7          C236   1.265       .  A
O7          V234   1.899       .  S
O8          C235   1.265       .  A
O8           V10   1.900   1_565  S
V9          O225   1.898       .  S
V9          O228   1.897   1_564  S
V9           V10   2.088   1_565  T
V10         O229   1.896   1_554  S
V10         O231   1.899       .  S
C11         O232   1.265       .  A
C11          C49   1.480       .  S
C12         O231   1.265       .  A
C12          C33   1.479       .  S
C13          C28   1.461       .  S
C14          C27   1.461       .  S
O15          C25   1.265       .  A
O15          V23   1.900       .  S
O16          C26   1.265       .  A
O16          V23   1.899   1_565  S
O17          C27   1.263       .  A
O17          V23   1.897       .  S
O18          C28   1.263       .  A
O18          V23   1.897       .  S
O19          C28   1.263       .  A
O19          V24   1.897       .  S
O20          C27   1.263       .  A
O20          V24   1.896       .  S
O21          C26   1.265       .  A
O21          V24   1.900   1_565  S
O22          C25   1.265       .  A
O22          V24   1.899       .  S
V23          V24   2.088       .  T
C25          C40   1.480       .  S
C26          C60   1.480       .  S
C29         C213   1.481       .  S
C29          C30   1.403   1_554  A
C29          C34   1.403       .  A
C30          C31   1.402       .  A
C30          H35   1.083       .  S
C31         C204   1.482       .  S
C31          C32   1.404       .  A
C32          C33   1.405   1_556  A
C32          H36   1.084       .  S
C33          C34   1.404       .  A
C34          H37   1.084       .  S
C38         C192   1.474       .  S
C38          C39   1.401       .  A
C38          C43   1.402       .  A
C39          C40   1.405       .  A
C39          H44   1.084       .  S
C40          C41   1.405       .  A
C41          C42   1.404       .  A
C41          H45   1.083       .  S
C42         C177   1.483       .  S
C42          C43   1.405       .  A
C43          H46   1.084       .  S
C47         C168   1.480       .  S
C47          C52   1.403       .  A
C47         C272   1.402   1_556  A
C48          C49   1.404       .  A
C48         C271   1.402       .  A
C48          H53   1.083       .  S
C49          C50   1.405       .  A
C50         C275   1.405       .  A
C50          H54   1.084       .  S
C51         C153   1.484       .  S
C51          C52   1.404   1_554  A
C51         C274   1.405       .  A
C52          H55   1.083       .  S
C56         C141   1.484       .  S
C56          C57   1.404       .  A
C56          C61   1.405       .  A
C57          C58   1.403       .  A
C57          H62   1.083       .  S
C58         C132   1.482       .  S
C58          C59   1.403       .  A
C59          C60   1.404       .  A
C59          H63   1.083       .  S
C60          C61   1.405       .  A
C61          H64   1.084       .  S
C65         C165   1.480       .  S
C65          C70   1.402   1_554  A
C65         C514   1.403       .  A
C66          C67   1.404   1_554  A
C66         C513   1.403   1_455  A
C66          H71   1.083   1_455  S
C67         C156   1.484       .  S
C67          C68   1.405       .  A
C68          C69   1.405       .  A
C68          H72   1.084       .  S
C69         C559   1.480       .  S
C69         C518   1.404   1_455  A
C70         C517   1.404       .  A
C70          H73   1.083       .  S
C74         C129   1.482       .  S
C74          C75   1.403       .  A
C74          C79   1.403       .  A
C75         C524   1.404   1_455  A
C75          H80   1.083       .  S
C76         C144   1.484       .  S
C76          C77   1.405       .  A
C76         C523   1.404       .  A
C77         C526   1.405       .  A
C77          H81   1.084       .  S
C78         C125   1.480       .  S
C78          C79   1.404       .  A
C78         C525   1.405   1_455  A
C79          H82   1.083       .  S
C83         C201   1.482       .  S
C83          C84   1.403       .  A
C83          C88   1.404       .  A
C84         C533   1.403   1_554  A
C84          H89   1.083       .  S
C85         C216   1.481       .  S
C85          C86   1.403       .  A
C85         C532   1.403   1_556  A
C86          C87   1.404       .  A
C86          H90   1.084       .  S
C87         C560   1.479       .  S
C87         C536   1.405   1_456  A
C88         C535   1.405   1_554  A
C88          H91   1.084       .  S
C92         C180   1.483       .  S
C92          C97   1.404       .  A
C92         C541   1.405       .  A
C93          C94   1.402       .  A
C93         C540   1.405   1_455  A
C93          H98   1.084       .  S
C94         C189   1.474       .  S
C94          C95   1.401       .  A
C95          C96   1.405       .  A
C95          H99   1.084       .  S
C96         C126   1.480       .  S
C96         C545   1.405   1_455  A
C97         C544   1.405       .  A
C97         H100   1.083       .  S
O101        C559   1.265       .  A
O101        V109   1.900       .  S
O102        C784   1.265       .  A
O102        V333   1.899       .  S
O103        C113   1.263       .  A
O103        V333   1.896       .  S
O104        C114   1.263       .  A
O104        V109   1.896   1_554  S
O105        C562   1.263       .  A
O105        V110   1.897   1_554  S
O106        C561   1.263       .  A
O106        V334   1.897       .  S
O107        C112   1.264       .  A
O107        V110   1.898       .  S
O108        C335   1.265       .  A
O108        V334   1.898       .  S
V109        O326   1.899       .  S
V109        O327   1.896       .  S
V109        V558   2.088   1_455  T
V110        O330   1.897       .  S
V110        O332   1.898       .  S
V110        V557   2.088       .  T
C111        O549   1.265       .  A
C111        O332   1.265       .  A
C111        C517   1.480       .  S
C112        O774   1.265       .  A
C112        C535   1.479       .  S
C113        O554   1.263   1_455  A
C113        C127   1.461       .  S
C114        O553   1.263   1_455  A
C114        C128   1.461       .  S
O115        C573   1.265       .  A
O115        V123   1.900       .  S
O116        C574   1.265       .  A
O116        V123   1.900       .  S
O117        C575   1.263       .  A
O117        V123   1.896       .  S
O118        C576   1.263       .  A
O118        V123   1.896       .  S
O119        C128   1.263       .  A
O119        V124   1.897       .  S
O120        C127   1.263       .  A
O120        V124   1.897       .  S
O121        C126   1.265       .  A
O121        V124   1.900       .  S
O122        C125   1.265       .  A
O122        V124   1.899       .  S
V123        V572   2.088       .  T
V124        V571   2.088   1_455  T
C125        O563   1.265   1_455  A
C126        O564   1.265   1_455  A
C127        O565   1.263   1_455  A
C128        O566   1.263   1_455  A
C129        C130   1.404       .  A
C129        C134   1.409       .  A
C130        C131   1.400       .  A
C130        H135   1.084       .  S
C131        C132   1.409       .  A
C131        O136   1.372       .  S
C132        C133   1.404       .  A
C133        C134   1.400       .  A
C133        H137   1.084       .  S
C134        O138   1.372       .  S
O136        H140   0.992       .  S
O138        H139   0.992       .  S
C141        C142   1.405       .  A
C141        C146   1.410       .  A
C142        C143   1.401       .  A
C142        H147   1.084       .  S
C143        C144   1.410       .  A
C143        O148   1.372       .  S
C144        C145   1.405       .  A
C145        C146   1.401       .  A
C145        H149   1.084       .  S
C146        O150   1.372       .  S
O148        H152   0.992       .  S
O150        H151   0.992       .  S
C153        C158   1.410       .  A
C153        C378   1.405   1_554  A
C154        C155   1.400       .  A
C154        C377   1.405       .  A
C154        H159   1.084       .  S
C155        C380   1.410       .  A
C155        O160   1.372       .  S
C156        C157   1.405   1_556  A
C156        C379   1.410       .  A
C157        C158   1.400       .  A
C157        H161   1.084       .  S
C158        O162   1.372       .  S
O160        H164   0.992       .  S
O162        H163   0.992       .  S
C165        C170   1.409       .  A
C165        C390   1.404   1_554  A
C166        C167   1.400       .  A
C166        C389   1.404       .  A
C166        H171   1.084       .  S
C167        C392   1.409       .  A
C167        O172   1.372       .  S
C168        C169   1.404   1_556  A
C168        C391   1.409       .  A
C169        C170   1.400       .  A
C169        H173   1.084       .  S
C170        O174   1.372       .  S
O172        H176   0.992       .  S
O174        H175   0.992       .  S
C177        C178   1.404       .  A
C177        C182   1.410       .  A
C178        C179   1.401       .  A
C178        H183   1.084       .  S
C179        C180   1.410       .  A
C179        O184   1.373       .  S
C180        C181   1.404       .  A
C181        C182   1.401       .  A
C181        H185   1.084       .  S
C182        O186   1.373       .  S
O184        H188   0.992       .  S
O186        H187   0.992       .  S
C189        C190   1.402       .  A
C189        C194   1.407       .  A
C190        C191   1.401       .  A
C190        H195   1.083       .  S
C191        C192   1.407       .  A
C191        O196   1.371       .  S
C192        C193   1.402       .  A
C193        C194   1.401       .  A
C193        H197   1.083       .  S
C194        O198   1.371       .  S
O196        H200   0.992       .  S
O198        H199   0.992       .  S
C201        C206   1.410       .  A
C201        C426   1.404   1_554  A
C202        C203   1.400       .  A
C202        C425   1.404       .  A
C202        H207   1.084       .  S
C203        C428   1.410       .  A
C203        O208   1.372       .  S
C204        C205   1.404   1_556  A
C204        C427   1.410       .  A
C205        C206   1.400       .  A
C205        H209   1.084       .  S
C206        O210   1.372       .  S
O208        H212   0.992       .  S
O210        H211   0.992       .  S
C213        C218   1.409       .  A
C213        C438   1.404   1_554  A
C214        C215   1.399       .  A
C214        C437   1.404       .  A
C214        H219   1.083       .  S
C215        C440   1.409       .  A
C215        O220   1.372       .  S
C216        C217   1.404   1_556  A
C216        C439   1.409       .  A
C217        C218   1.399       .  A
C217        H221   1.083       .  S
C218        O222   1.372       .  S
O220        H224   0.992       .  S
O222        H223   0.992       .  S
O225        C235   1.265       .  A
O226        C236   1.264       .  A
O226        V233   1.898   1_545  S
O227        C237   1.263   1_565  A
O227        V233   1.897       .  S
O228        C238   1.263       .  A
O229        C238   1.263       .  A
O230        C237   1.263       .  A
O230        V234   1.896       .  S
O232        V234   1.900   1_565  S
V233        V234   2.088   1_565  T
C235        C273   1.480       .  S
C236        C257   1.479       .  S
C237        C252   1.461       .  S
C238        C251   1.461       .  S
O239        C249   1.265       .  A
O239        V247   1.900       .  S
O240        C250   1.265       .  A
O240        V247   1.899   1_565  S
O241        C251   1.263       .  A
O241        V247   1.897       .  S
O242        C252   1.263       .  A
O242        V247   1.897       .  S
O243        C252   1.263       .  A
O243        V248   1.897       .  S
O244        C251   1.263       .  A
O244        V248   1.896       .  S
O245        C250   1.265       .  A
O245        V248   1.900   1_565  S
O246        C249   1.265       .  A
O246        V248   1.899       .  S
V247        V248   2.088       .  T
C249        C264   1.480       .  S
C250        C284   1.480       .  S
C253        C437   1.481       .  S
C253        C254   1.403       .  A
C253        C258   1.403       .  A
C254        C255   1.402       .  A
C254        H259   1.083       .  S
C255        C428   1.482       .  S
C255        C256   1.404       .  A
C256        C257   1.405       .  A
C256        H260   1.084       .  S
C257        C258   1.404       .  A
C258        H261   1.084       .  S
C262        C416   1.474       .  S
C262        C263   1.401       .  A
C262        C267   1.402       .  A
C263        C264   1.405       .  A
C263        H268   1.084       .  S
C264        C265   1.405       .  A
C265        C266   1.404       .  A
C265        H269   1.083       .  S
C266        C401   1.483       .  S
C266        C267   1.405       .  A
C267        H270   1.084       .  S
C271        C392   1.480       .  S
C271        C276   1.403       .  A
C272        C273   1.404       .  A
C272        H277   1.083       .  S
C273        C274   1.405       .  A
C274        H278   1.084       .  S
C275        C377   1.484       .  S
C275        C276   1.404       .  A
C276        H279   1.083       .  S
C280        C365   1.484       .  S
C280        C281   1.404       .  A
C280        C285   1.405       .  A
C281        C282   1.403       .  A
C281        H286   1.083       .  S
C282        C356   1.482       .  S
C282        C283   1.403       .  A
C283        C284   1.404       .  A
C283        H287   1.083       .  S
C284        C285   1.405       .  A
C285        H288   1.084       .  S
C289        C389   1.480       .  S
C289        C738   1.403       .  A
C289        C294   1.402       .  A
C290        C737   1.403   1_455  A
C290        C291   1.404       .  A
C290        H295   1.083   1_455  S
C291        C380   1.484       .  S
C291        C292   1.405       .  A
C292        C293   1.405       .  A
C292        H296   1.084       .  S
C293        C783   1.480       .  S
C293        C742   1.404   1_455  A
C294        C741   1.404       .  A
C294        H297   1.083       .  S
C298        C353   1.482       .  S
C298        C299   1.403       .  A
C298        C303   1.403       .  A
C299        C748   1.404   1_455  A
C299        H304   1.083       .  S
C300        C368   1.484       .  S
C300        C747   1.404       .  A
C300        C301   1.405       .  A
C301        C750   1.405       .  A
C301        H305   1.084       .  S
C302        C349   1.480       .  S
C302        C749   1.405   1_455  A
C302        C303   1.404       .  A
C303        H306   1.083       .  S
C307        C425   1.482       .  S
C307        C308   1.402       .  A
C307        C312   1.404       .  A
C308        C757   1.403       .  A
C308        H313   1.083       .  S
C309        C440   1.481       .  S
C309        C756   1.403       .  A
C309        C310   1.403       .  A
C310        C311   1.404       .  A
C310        H314   1.084       .  S
C311        C784   1.479       .  S
C311        C760   1.405   1_455  A
C312        C759   1.405       .  A
C312        H315   1.084       .  S
C316        C404   1.483       .  S
C316        C765   1.405       .  A
C316        C321   1.404       .  A
C317        C764   1.405   1_455  A
C317        C318   1.402       .  A
C317        H322   1.084       .  S
C318        C413   1.474       .  S
C318        C319   1.401       .  A
C319        C320   1.405       .  A
C319        H323   1.084       .  S
C320        C350   1.480       .  S
C320        C769   1.405   1_455  A
C321        C768   1.405       .  A
C321        H324   1.083       .  S
O325        C783   1.265       .  A
O325        V333   1.900       .  S
O326        C560   1.265       .  A
O327        C337   1.263       .  A
O328        C338   1.263       .  A
O328        V333   1.896       .  S
O329        C786   1.263       .  A
O329        V334   1.897       .  S
O330        C785   1.263       .  A
O331        C336   1.264       .  A
O331        V334   1.898       .  S
V333        V782   2.088   1_455  T
V334        V781   2.088       .  T
C335        O773   1.265       .  A
C335        C741   1.480       .  S
C336        O550   1.265       .  A
C336        C759   1.479       .  S
C337        O778   1.263   1_455  A
C337        C351   1.461       .  S
C338        O777   1.263   1_455  A
C338        C352   1.461       .  S
O339        C797   1.265       .  A
O339        V347   1.900       .  S
O340        C798   1.265       .  A
O340        V347   1.900       .  S
O341        C799   1.263       .  A
O341        V347   1.896       .  S
O342        C800   1.263       .  A
O342        V347   1.896       .  S
O343        C352   1.263       .  A
O343        V348   1.897       .  S
O344        C351   1.263       .  A
O344        V348   1.897       .  S
O345        C350   1.265       .  A
O345        V348   1.900       .  S
O346        C349   1.265       .  A
O346        V348   1.899       .  S
V347        V796   2.088       .  T
V348        V795   2.088   1_455  T
C349        O787   1.265   1_455  A
C350        O788   1.265   1_455  A
C351        O789   1.263   1_455  A
C352        O790   1.263   1_455  A
C353        C354   1.404       .  A
C353        C358   1.409       .  A
C354        C355   1.400       .  A
C354        H359   1.084       .  S
C355        C356   1.409       .  A
C355        O360   1.372       .  S
C356        C357   1.404       .  A
C357        C358   1.400       .  A
C357        H361   1.084       .  S
C358        O362   1.372       .  S
O360        H364   0.992       .  S
O362        H363   0.992       .  S
C365        C366   1.405       .  A
C365        C370   1.410       .  A
C366        C367   1.401       .  A
C366        H371   1.084       .  S
C367        C368   1.410       .  A
C367        O372   1.372       .  S
C368        C369   1.405       .  A
C369        C370   1.401       .  A
C369        H373   1.084       .  S
C370        O374   1.372       .  S
O372        H376   0.992       .  S
O374        H375   0.992       .  S
C377        C382   1.410       .  A
C378        C379   1.400       .  A
C378        H383   1.084       .  S
C379        O384   1.372       .  S
C380        C381   1.405       .  A
C381        C382   1.400       .  A
C381        H385   1.084       .  S
C382        O386   1.372       .  S
O384        H388   0.992       .  S
O386        H387   0.992       .  S
C389        C394   1.409       .  A
C390        C391   1.400       .  A
C390        H395   1.084       .  S
C391        O396   1.372       .  S
C392        C393   1.404       .  A
C393        C394   1.400       .  A
C393        H397   1.084       .  S
C394        O398   1.372       .  S
O396        H400   0.992       .  S
O398        H399   0.992       .  S
C401        C402   1.404       .  A
C401        C406   1.410       .  A
C402        C403   1.401       .  A
C402        H407   1.084       .  S
C403        C404   1.410       .  A
C403        O408   1.373       .  S
C404        C405   1.404       .  A
C405        C406   1.401       .  A
C405        H409   1.084       .  S
C406        O410   1.373       .  S
O408        H412   0.992       .  S
O410        H411   0.992       .  S
C413        C414   1.402       .  A
C413        C418   1.407       .  A
C414        C415   1.401       .  A
C414        H419   1.083       .  S
C415        C416   1.407       .  A
C415        O420   1.371       .  S
C416        C417   1.402       .  A
C417        C418   1.401       .  A
C417        H421   1.083       .  S
C418        O422   1.371       .  S
O420        H424   0.992       .  S
O422        H423   0.992       .  S
C425        C430   1.410       .  A
C426        C427   1.400       .  A
C426        H431   1.084       .  S
C427        O432   1.372       .  S
C428        C429   1.404       .  A
C429        C430   1.400       .  A
C429        H433   1.084       .  S
C430        O434   1.372       .  S
O432        H436   0.992       .  S
O434        H435   0.992       .  S
C437        C442   1.409       .  A
C438        C439   1.399       .  A
C438        H443   1.083       .  S
C439        O444   1.372       .  S
C440        C441   1.404       .  A
C441        C442   1.399       .  A
C441        H445   1.083       .  S
C442        O446   1.372       .  S
O444        H448   0.992       .  S
O446        H447   0.992       .  S
O449        C459   1.265       .  A
O449        V681   1.898       .  S
O450        C460   1.264       .  A
O450        V457   1.898   1_545  S
O451        C461   1.263   1_565  A
O451        V457   1.897       .  S
O452        C462   1.263       .  A
O452        V681   1.897   1_545  S
O453        C462   1.263       .  A
O453        V682   1.896       .  S
O454        C461   1.263       .  A
O454        V458   1.896       .  S
O455        C684   1.265       .  A
O455        V682   1.899       .  S
O456        C683   1.265       .  A
O456        V458   1.900   1_565  S
V457        O673   1.898       .  S
V457        O676   1.897   1_564  S
V457        V458   2.088   1_565  T
V458        O677   1.896   1_554  S
V458        O679   1.899       .  S
C459        O680   1.265       .  A
C459        C497   1.480       .  S
C460        O679   1.265       .  A
C460        C481   1.479       .  S
C461        C476   1.461       .  S
C462        C475   1.461       .  S
O463        C473   1.265       .  A
O463        V471   1.900       .  S
O464        C474   1.265       .  A
O464        V471   1.899   1_565  S
O465        C475   1.263       .  A
O465        V471   1.897       .  S
O466        C476   1.263       .  A
O466        V471   1.897       .  S
O467        C476   1.263       .  A
O467        V472   1.897       .  S
O468        C475   1.263       .  A
O468        V472   1.896       .  S
O469        C474   1.265       .  A
O469        V472   1.900   1_565  S
O470        C473   1.265       .  A
O470        V472   1.899       .  S
V471        V472   2.088       .  T
C473        C488   1.480       .  S
C474        C508   1.480       .  S
C477        C661   1.481       .  S
C477        C478   1.403   1_554  A
C477        C482   1.403       .  A
C478        C479   1.402       .  A
C478        H483   1.083       .  S
C479        C652   1.482       .  S
C479        C480   1.404       .  A
C480        C481   1.405   1_556  A
C480        H484   1.084       .  S
C481        C482   1.404       .  A
C482        H485   1.084       .  S
C486        C640   1.474       .  S
C486        C487   1.401       .  A
C486        C491   1.402       .  A
C487        C488   1.405       .  A
C487        H492   1.084       .  S
C488        C489   1.405       .  A
C489        C490   1.404       .  A
C489        H493   1.083       .  S
C490        C625   1.483       .  S
C490        C491   1.405       .  A
C491        H494   1.084       .  S
C495        C616   1.480       .  S
C495        C720   1.402   1_556  A
C495        C500   1.403       .  A
C496        C719   1.402       .  A
C496        C497   1.404       .  A
C496        H501   1.083       .  S
C497        C498   1.405       .  A
C498        C723   1.405       .  A
C498        H502   1.084       .  S
C499        C601   1.484       .  S
C499        C722   1.405       .  A
C499        C500   1.404   1_554  A
C500        H503   1.083       .  S
C504        C589   1.484       .  S
C504        C505   1.404       .  A
C504        C509   1.405       .  A
C505        C506   1.403       .  A
C505        H510   1.083       .  S
C506        C580   1.482       .  S
C506        C507   1.403       .  A
C507        C508   1.404       .  A
C507        H511   1.083       .  S
C508        C509   1.405       .  A
C509        H512   1.084       .  S
C513        C613   1.480       .  S
C513        C518   1.402   1_554  A
C514        C515   1.404   1_554  A
C514        H519   1.083       .  S
C515        C604   1.484       .  S
C515        C516   1.405       .  A
C516        C517   1.405       .  A
C516        H520   1.084       .  S
C518        H521   1.083       .  S
C522        C577   1.482       .  S
C522        C523   1.403       .  A
C522        C527   1.403       .  A
C523        H528   1.083       .  S
C524        C592   1.484       .  S
C524        C525   1.405       .  A
C525        H529   1.084       .  S
C526        C573   1.480       .  S
C526        C527   1.404       .  A
C527        H530   1.083       .  S
C531        C649   1.482       .  S
C531        C532   1.403   1_655  A
C531        C536   1.404       .  A
C532        H537   1.083       .  S
C533        C664   1.481       .  S
C533        C534   1.403       .  A
C534        C535   1.404       .  A
C534        H538   1.084       .  S
C536        H539   1.084       .  S
C540        C628   1.483       .  S
C540        C545   1.404       .  A
C541        C542   1.402       .  A
C541        H546   1.084       .  S
C542        C637   1.474       .  S
C542        C543   1.401       .  A
C543        C544   1.405       .  A
C543        H547   1.084       .  S
C544        C574   1.480       .  S
C545        H548   1.083       .  S
O549        V557   1.900       .  S
O550        V781   1.899       .  S
O551        C561   1.263       .  A
O551        V781   1.896       .  S
O552        C562   1.263       .  A
O552        V557   1.896   1_554  S
O553        V558   1.897   1_554  S
O554        V782   1.897       .  S
O555        C560   1.264   1_655  A
O555        V558   1.898       .  S
O556        C783   1.265   1_655  A
O556        V782   1.898       .  S
V557        O774   1.899       .  S
V557        O775   1.896       .  S
V558        O778   1.897       .  S
V558        O780   1.898       .  S
C559        O780   1.265   1_455  A
C561        C575   1.461       .  S
C562        C576   1.461       .  S
O563        V571   1.900       .  S
O564        V571   1.900       .  S
O565        V571   1.896       .  S
O566        V571   1.896       .  S
O567        C576   1.263       .  A
O567        V572   1.897       .  S
O568        C575   1.263       .  A
O568        V572   1.897       .  S
O569        C574   1.265       .  A
O569        V572   1.900       .  S
O570        C573   1.265       .  A
O570        V572   1.899       .  S
C577        C578   1.404       .  A
C577        C582   1.409       .  A
C578        C579   1.400       .  A
C578        H583   1.084       .  S
C579        C580   1.409       .  A
C579        O584   1.372       .  S
C580        C581   1.404       .  A
C581        C582   1.400       .  A
C581        H585   1.084       .  S
C582        O586   1.372       .  S
O584        H588   0.992       .  S
O586        H587   0.992       .  S
C589        C590   1.405       .  A
C589        C594   1.410       .  A
C590        C591   1.401       .  A
C590        H595   1.084       .  S
C591        C592   1.410       .  A
C591        O596   1.372       .  S
C592        C593   1.405       .  A
C593        C594   1.401       .  A
C593        H597   1.084       .  S
C594        O598   1.372       .  S
O596        H600   0.992       .  S
O598        H599   0.992       .  S
C601        C826   1.405   1_554  A
C601        C606   1.410       .  A
C602        C825   1.405       .  A
C602        C603   1.400       .  A
C602        H607   1.084       .  S
C603        C828   1.410       .  A
C603        O608   1.372       .  S
C604        C827   1.410       .  A
C604        C605   1.405   1_556  A
C605        C606   1.400       .  A
C605        H609   1.084       .  S
C606        O610   1.372       .  S
O608        H612   0.992       .  S
O610        H611   0.992       .  S
C613        C838   1.404   1_554  A
C613        C618   1.409       .  A
C614        C837   1.404       .  A
C614        C615   1.400       .  A
C614        H619   1.084       .  S
C615        C840   1.409       .  A
C615        O620   1.372       .  S
C616        C839   1.409       .  A
C616        C617   1.404   1_556  A
C617        C618   1.400       .  A
C617        H621   1.084       .  S
C618        O622   1.372       .  S
O620        H624   0.992       .  S
O622        H623   0.992       .  S
C625        C626   1.404       .  A
C625        C630   1.410       .  A
C626        C627   1.401       .  A
C626        H631   1.084       .  S
C627        C628   1.410       .  A
C627        O632   1.373       .  S
C628        C629   1.404       .  A
C629        C630   1.401       .  A
C629        H633   1.084       .  S
C630        O634   1.373       .  S
O632        H636   0.992       .  S
O634        H635   0.992       .  S
C637        C638   1.402       .  A
C637        C642   1.407       .  A
C638        C639   1.401       .  A
C638        H643   1.083       .  S
C639        C640   1.407       .  A
C639        O644   1.371       .  S
C640        C641   1.402       .  A
C641        C642   1.401       .  A
C641        H645   1.083       .  S
C642        O646   1.371       .  S
O644        H648   0.992       .  S
O646        H647   0.992       .  S
C649        C874   1.404   1_554  A
C649        C654   1.410       .  A
C650        C873   1.404       .  A
C650        C651   1.400       .  A
C650        H655   1.084       .  S
C651        C876   1.410       .  A
C651        O656   1.372       .  S
C652        C875   1.410       .  A
C652        C653   1.404   1_556  A
C653        C654   1.400       .  A
C653        H657   1.084       .  S
C654        O658   1.372       .  S
O656        H660   0.992       .  S
O658        H659   0.992       .  S
C661        C886   1.404   1_554  A
C661        C666   1.409       .  A
C662        C885   1.404       .  A
C662        C663   1.399       .  A
C662        H667   1.083       .  S
C663        C888   1.409       .  A
C663        O668   1.372       .  S
C664        C887   1.409       .  A
C664        C665   1.404   1_556  A
C665        C666   1.399       .  A
C665        H669   1.083       .  S
C666        O670   1.372       .  S
O668        H672   0.992       .  S
O670        H671   0.992       .  S
O673        C683   1.265       .  A
O674        C684   1.264       .  A
O674        V681   1.898   1_545  S
O675        C685   1.263   1_565  A
O675        V681   1.897       .  S
O676        C686   1.263       .  A
O677        C686   1.263       .  A
O678        C685   1.263       .  A
O678        V682   1.896       .  S
O680        V682   1.900   1_565  S
V681        V682   2.088   1_565  T
C683        C721   1.480       .  S
C684        C705   1.479       .  S
C685        C700   1.461       .  S
C686        C699   1.461       .  S
O687        C697   1.265       .  A
O687        V695   1.900       .  S
O688        C698   1.265       .  A
O688        V695   1.899   1_565  S
O689        C699   1.263       .  A
O689        V695   1.897       .  S
O690        C700   1.263       .  A
O690        V695   1.897       .  S
O691        C700   1.263       .  A
O691        V696   1.897       .  S
O692        C699   1.263       .  A
O692        V696   1.896       .  S
O693        C698   1.265       .  A
O693        V696   1.900   1_565  S
O694        C697   1.265       .  A
O694        V696   1.899       .  S
V695        V696   2.088       .  T
C697        C712   1.480       .  S
C698        C732   1.480       .  S
C701        C885   1.481       .  S
C701        C702   1.403       .  A
C701        C706   1.403       .  A
C702        C703   1.402       .  A
C702        H707   1.083       .  S
C703        C876   1.482       .  S
C703        C704   1.404       .  A
C704        C705   1.405       .  A
C704        H708   1.084       .  S
C705        C706   1.404       .  A
C706        H709   1.084       .  S
C710        C864   1.474       .  S
C710        C711   1.401       .  A
C710        C715   1.402       .  A
C711        C712   1.405       .  A
C711        H716   1.084       .  S
C712        C713   1.405       .  A
C713        C714   1.404       .  A
C713        H717   1.083       .  S
C714        C849   1.483       .  S
C714        C715   1.405       .  A
C715        H718   1.084       .  S
C719        C840   1.480       .  S
C719        C724   1.403       .  A
C720        C721   1.404       .  A
C720        H725   1.083       .  S
C721        C722   1.405       .  A
C722        H726   1.084       .  S
C723        C825   1.484       .  S
C723        C724   1.404       .  A
C724        H727   1.083       .  S
C728        C813   1.484       .  S
C728        C729   1.404       .  A
C728        C733   1.405       .  A
C729        C730   1.403       .  A
C729        H734   1.083       .  S
C730        C804   1.482       .  S
C730        C731   1.403       .  A
C731        C732   1.404       .  A
C731        H735   1.083       .  S
C732        C733   1.405       .  A
C733        H736   1.084       .  S
C737        C837   1.480       .  S
C737        C742   1.402       .  A
C738        C739   1.404       .  A
C738        H743   1.083       .  S
C739        C828   1.484       .  S
C739        C740   1.405       .  A
C740        C741   1.405       .  A
C740        H744   1.084       .  S
C742        H745   1.083       .  S
C746        C801   1.482       .  S
C746        C747   1.403       .  A
C746        C751   1.403       .  A
C747        H752   1.083       .  S
C748        C816   1.484       .  S
C748        C749   1.405       .  A
C749        H753   1.084       .  S
C750        C797   1.480       .  S
C750        C751   1.404       .  A
C751        H754   1.083       .  S
C755        C873   1.482       .  S
C755        C756   1.402   1_655  A
C755        C760   1.404       .  A
C756        H761   1.083       .  S
C757        C888   1.481       .  S
C757        C758   1.403       .  A
C758        C759   1.404       .  A
C758        H762   1.084       .  S
C760        H763   1.084       .  S
C764        C852   1.483       .  S
C764        C769   1.404       .  A
C765        C766   1.402       .  A
C765        H770   1.084       .  S
C766        C861   1.474       .  S
C766        C767   1.401       .  A
C767        C768   1.405       .  A
C767        H771   1.084       .  S
C768        C798   1.480       .  S
C769        H772   1.083       .  S
O773        V781   1.900       .  S
O775        C785   1.263       .  A
O776        C786   1.263       .  A
O776        V781   1.896       .  S
O777        V782   1.897       .  S
O779        C784   1.264   1_655  A
O779        V782   1.898       .  S
C785        C799   1.461       .  S
C786        C800   1.461       .  S
O787        V795   1.900       .  S
O788        V795   1.900       .  S
O789        V795   1.896       .  S
O790        V795   1.896       .  S
O791        C800   1.263       .  A
O791        V796   1.897       .  S
O792        C799   1.263       .  A
O792        V796   1.897       .  S
O793        C798   1.265       .  A
O793        V796   1.900       .  S
O794        C797   1.265       .  A
O794        V796   1.899       .  S
C801        C802   1.404       .  A
C801        C806   1.409       .  A
C802        C803   1.400       .  A
C802        H807   1.084       .  S
C803        C804   1.409       .  A
C803        O808   1.372       .  S
C804        C805   1.404       .  A
C805        C806   1.400       .  A
C805        H809   1.084       .  S
C806        O810   1.372       .  S
O808        H812   0.992       .  S
O810        H811   0.992       .  S
C813        C814   1.405       .  A
C813        C818   1.410       .  A
C814        C815   1.401       .  A
C814        H819   1.084       .  S
C815        C816   1.410       .  A
C815        O820   1.372       .  S
C816        C817   1.405       .  A
C817        C818   1.401       .  A
C817        H821   1.084       .  S
C818        O822   1.372       .  S
O820        H824   0.992       .  S
O822        H823   0.992       .  S
C825        C830   1.410       .  A
C826        C827   1.400       .  A
C826        H831   1.084       .  S
C827        O832   1.372       .  S
C828        C829   1.405       .  A
C829        C830   1.400       .  A
C829        H833   1.084       .  S
C830        O834   1.372       .  S
O832        H836   0.992       .  S
O834        H835   0.992       .  S
C837        C842   1.409       .  A
C838        C839   1.400       .  A
C838        H843   1.084       .  S
C839        O844   1.372       .  S
C840        C841   1.404       .  A
C841        C842   1.400       .  A
C841        H845   1.084       .  S
C842        O846   1.372       .  S
O844        H848   0.992       .  S
O846        H847   0.992       .  S
C849        C850   1.404       .  A
C849        C854   1.410       .  A
C850        C851   1.401       .  A
C850        H855   1.084       .  S
C851        C852   1.410       .  A
C851        O856   1.373       .  S
C852        C853   1.404       .  A
C853        C854   1.401       .  A
C853        H857   1.084       .  S
C854        O858   1.373       .  S
O856        H860   0.992       .  S
O858        H859   0.992       .  S
C861        C862   1.402       .  A
C861        C866   1.407       .  A
C862        C863   1.401       .  A
C862        H867   1.083       .  S
C863        C864   1.407       .  A
C863        O868   1.371       .  S
C864        C865   1.402       .  A
C865        C866   1.401       .  A
C865        H869   1.083       .  S
C866        O870   1.371       .  S
O868        H872   0.992       .  S
O870        H871   0.992       .  S
C873        C878   1.410       .  A
C874        C875   1.400       .  A
C874        H879   1.084       .  S
C875        O880   1.372       .  S
C876        C877   1.404       .  A
C877        C878   1.400       .  A
C877        H881   1.084       .  S
C878        O882   1.372       .  S
O880        H884   0.992       .  S
O882        H883   0.992       .  S
C885        C890   1.409       .  A
C886        C887   1.399       .  A
C886        H891   1.083       .  S
C887        O892   1.372       .  S
C888        C889   1.404       .  A
C889        C890   1.399       .  A
C889        H893   1.083       .  S
C890        O894   1.372       .  S
O892        H896   0.992       .  S
O894        H895   0.992       .  S
