geometry optimzed in LAMMPS
_audit_creation_date              2020-12-01 
_audit_creation_method            'lammps2cif' 
_symmetry_space_group_name_H-M    'P1' 
_symmetry_Int_Tables_number       1 
_symmetry_cell_setting            triclinic 
loop_ 
_symmetry_equiv_pos_as_xyz 
  x,y,z 
_cell_length_a                    48.70680347 
_cell_length_b                    48.730929007553826 
_cell_length_c                    26.126755743166186 
_cell_angle_alpha                 90.18694131374427 
_cell_angle_beta                  89.87585999195204 
_cell_angle_gamma                 89.9898971935347 
loop_ 
_atom_site_label 
_atom_site_type_symbol 
_atom_site_fract_x 
_atom_site_fract_y 
_atom_site_fract_z 
_atom_site_charge 
C1          C  0.34103618  0.19162033  0.00857189     0.79400
N2          N  0.32131431  0.21128858  0.00522088    -0.78900
C3          C  0.29779840  0.20398269  0.49202153     0.81900
N4          N  0.29048931  0.17715337  0.49087277    -0.78800
C5          C  0.30979371  0.15721099  0.49546926     0.82000
N6          N  0.33376097  0.16470527  0.00764687    -0.80500
C7          C  0.41577399  0.43970506  0.24757112     0.79400
N8          N  0.42357398  0.41293774  0.24616638    -0.78900
C9          C  0.45045316  0.40611364  0.25165874     0.81900
N10         N  0.46934496  0.42608363  0.25977430    -0.78800
C11         C  0.46169269  0.45276387  0.26247128     0.82000
N12         N  0.43489111  0.45943481  0.25608592    -0.80500
C13         C  0.20107730  0.33354898  0.48108183     0.79400
N14         N  0.17427613  0.32576819  0.48095933    -0.78900
C15         C  0.16749324  0.29873898  0.47737040     0.81900
N16         N  0.18767474  0.27950397  0.47489936    -0.78800
C17         C  0.21443934  0.28717782  0.47600188     0.82000
N18         N  0.22100593  0.31410805  0.47973588    -0.80500
O19         O  0.24681566  0.47233277  0.32296123    -0.75200
O20         O  0.24519934  0.47178665  0.17621888    -0.75200
O21         O  0.28265847  0.45825097  0.24780488    -0.75300
O22         O  0.20925642  0.48559894  0.25116269    -0.75300
O23         O  0.22665654  0.03016253  0.25659611    -0.75300
O24         O  0.30021352  0.00254617  0.25258440    -0.75200
O25         O  0.26280670  0.01685165  0.18119740    -0.75200
O26         O  0.26424285  0.01602402  0.32758014    -0.75300
Ni27       Ni  0.24540815  0.47045591  0.24958163     1.25400
Ni28       Ni  0.26405648  0.01794282  0.25449337     1.25400
C29         C  0.25490076  0.49400407  0.34635941     0.87000
C30         C  0.25300510  0.49323696  0.15207343     0.86900
C31         C  0.30278235  0.47510607  0.24718335     0.86900
C32         C  0.20665145  0.01310667  0.25698085     0.87100
O33         O  0.21763310  0.46627723  0.99771416    -0.75200
O34         O  0.24856763  0.03995345  0.50290389    -0.75200
O35         O  0.23483193  0.00265913  0.43062425    -0.75300
O36         O  0.23365059  0.00311788  0.07718513    -0.75300
O37         O  0.27429590  0.48487535  0.07227997    -0.75300
O38         O  0.27630839  0.48691351  0.42636954    -0.75200
O39         O  0.29044626  0.02368452  0.00351328    -0.75200
O40         O  0.26173584  0.45053830  0.49904049    -0.75300
Ni41       Ni  0.23315720  0.00380637  0.50380644     1.25400
Ni42       Ni  0.27731657  0.48657385  0.49969743     1.25400
C43         C  0.23574105  0.44650405  0.49840780     0.87000
C44         C  0.27454577  0.04409437  0.50177645     0.86900
C45         C  0.25487373  0.49463385  0.40212836     0.86900
C46         C  0.25294525  0.49321680  0.09636124     0.87100
C47         C  0.05984278  0.08353844  0.25760075     0.79400
N48         N  0.04027227  0.06376043  0.25688059    -0.78900
C49         C  0.04721670  0.03689374  0.25495059     0.81900
N50         N  0.07409665  0.02975227  0.25457650    -0.78800
C51         C  0.09396118  0.04928222  0.25462386     0.82000
N52         N  0.08678035  0.07623980  0.25613887    -0.80500
O53         O  0.48255195  0.23737901  0.17839556    -0.75200
O54         O  0.48317095  0.23626527  0.32492702    -0.75200
O55         O  0.46960964  0.27376295  0.25326214    -0.75300
O56         O  0.49617954  0.20001571  0.25026136    -0.75300
O57         O  0.03933349  0.21540039  0.24985703    -0.75300
O58         O  0.01275904  0.28907225  0.25280633    -0.75200
O59         O  0.02636322  0.25164884  0.32440043    -0.75200
O60         O  0.02577809  0.25276852  0.17795387    -0.75300
Ni61       Ni  0.48132027  0.23629893  0.25170457     1.25400
Ni62       Ni  0.02759153  0.25278692  0.25123033     1.25400
C63         C  0.00409953  0.24518900  0.15421809     0.87000
C64         C  0.00489468  0.24374973  0.34847223     0.86900
C65         C  0.48684911  0.29358934  0.25393432     0.86900
C66         C  0.02211697  0.19556731  0.24922297     0.87100
O67         O  0.47709363  0.20932382  0.50257401    -0.75200
O68         O  0.04767906  0.23748756  0.99862850    -0.75200
O69         O  0.01154671  0.22391799  0.07390901    -0.75300
O70         O  0.01318238  0.22216638  0.42777038    -0.75300
O71         O  0.49770581  0.26537561  0.42822761    -0.75300
O72         O  0.49588786  0.26693736  0.07517387    -0.75200
O73         O  0.03556895  0.27890596  0.49928999    -0.75200
O74         O  0.45815156  0.25351154  0.00366571    -0.75300
Ni75       Ni  0.01133227  0.22245830  0.00051658     1.25400
Ni76       Ni  0.49451039  0.26852259  0.00198801     1.25400
C77         C  0.45380284  0.22758231  0.00304662     0.87000
C78         C  0.05200009  0.26342303  0.99825886     0.86900
C79         C  0.00389579  0.24539665  0.09842348     0.86900
C80         C  0.00517758  0.24367767  0.40412165     0.87100
C81         C  0.05128999  0.11258202  0.25570707    -0.06900
C82         C  0.02805780  0.11907273  0.22636659    -0.18000
C83         C  0.01865500  0.14596906  0.22205655     0.10300
C84         C  0.03240792  0.16716015  0.24854119    -0.06800
C85         C  0.05599127  0.16087981  0.27706111    -0.18100
C86         C  0.06538598  0.13386107  0.28145724     0.10300
S87         S  0.98981083  0.15188471  0.18028868    -0.33000
S88         S  0.09429104  0.12787641  0.32291275    -0.33000
H89         H  0.08373568  0.10350472  0.34392697     0.28300
H90         H  0.99996005  0.17673026  0.16050825     0.28300
H91         H  0.01741759  0.10311278  0.20540473     0.18900
H92         H  0.06656211  0.17700423  0.29786470     0.18900
C93         C  0.17812505  0.02317826  0.25735196    -0.06900
C94         C  0.15930496  0.01012070  0.22492830    -0.18000
C95         C  0.13214947  0.01899120  0.22163904     0.10300
C96         C  0.12309836  0.04106753  0.25263220    -0.06800
C97         C  0.14198864  0.05442120  0.28470278    -0.18100
C98         C  0.16928254  0.04551583  0.28789372     0.10300
S99         S  0.11057455  0.00202387  0.17526503    -0.33000
S100        S  0.19118203  0.06227131  0.33395178    -0.33000
H101        H  0.20522467  0.03829581  0.34842332     0.28300
H102        H  0.09626950  0.02588909  0.16101425     0.28300
H103        H  0.16602619  0.99326707  0.20073970     0.18900
H104        H  0.13516241  0.07115520  0.30907565     0.18900
C105        C  0.22547900  0.41807949  0.49409355    -0.06900
C106        C  0.23937163  0.40032846  0.46059516    -0.18000
C107        C  0.23094228  0.37321014  0.45380619     0.10300
C108        C  0.20875364  0.36287354  0.48292963    -0.06800
C109        C  0.19567681  0.37942701  0.02035855    -0.18100
C110        C  0.20411537  0.40675965  0.02590661     0.10300
S111        S  0.24861213  0.35339408  0.40546081    -0.33000
S112        S  0.19159736  0.42578898  0.08031600    -0.33000
H113        H  0.17950428  0.44637964  0.05029987     0.28300
H114        H  0.22507923  0.33922144  0.38879658     0.28300
H115        H  0.25654905  0.40789632  0.43827194     0.18900
H116        H  0.18160654  0.37073798  0.04810908     0.18900
C117        C  0.13843281  0.29016695  0.47968149    -0.06900
C118        C  0.11851400  0.30291542  0.01757874    -0.18000
C119        C  0.09121759  0.29460626  0.02416990     0.10300
C120        C  0.08039953  0.27355399  0.99295441    -0.06800
C121        C  0.10071913  0.26032007  0.45476331    -0.18100
C122        C  0.12759387  0.26962614  0.44716072     0.10300
S123        S  0.07179598  0.30995204  0.07544542    -0.33000
S124        S  0.14639846  0.25544246  0.39378412    -0.32200
H125        H  0.16079272  0.27971560  0.38247196     0.28300
H126        H  0.05315717  0.32263083  0.04195295     0.28300
H127        H  0.12693348  0.31839716  0.04293727     0.18900
H128        H  0.09258440  0.24452717  0.42973383     0.18900
C129        C  0.48257728  0.47461276  0.26676105    -0.06900
C130        C  0.47838208  0.49875505  0.23875245    -0.18000
C131        C  0.00086641  0.01920969  0.22620599     0.10300
C132        C  0.02577338  0.01555315  0.25307479    -0.06800
C133        C  0.03010944  0.99105175  0.27997203    -0.18100
C134        C  0.50739477  0.47130355  0.29411975     0.10300
S135        S  0.99391724  0.04826165  0.18569436    -0.33000
S136        S  0.51424625  0.44231832  0.33488821    -0.33000
H137        H  0.48701686  0.43970854  0.35230224     0.28300
H138        H  0.02079071  0.04993244  0.16606685     0.28300
H139        H  0.45974967  0.50136305  0.21677110     0.18900
H140        H  0.04899599  0.98812892  0.30113642     0.18900
C141        C  0.33127517  0.46463652  0.24561770    -0.06900
C142        C  0.35113758  0.48033827  0.22000179    -0.18000
C143        C  0.37846110  0.47180223  0.21704157     0.10300
C144        C  0.38661725  0.44738754  0.24184493    -0.06800
C145        C  0.36660998  0.43101591  0.26544355    -0.18100
C146        C  0.33917452  0.43940694  0.26799889     0.10300
S147        S  0.40147330  0.49241997  0.17902443    -0.33000
S148        S  0.31591496  0.41779871  0.30341121    -0.33000
H149        H  0.30364450  0.43967491  0.33032002     0.28300
H150        H  0.41735546  0.47018981  0.16133253     0.28300
H151        H  0.34524570  0.49920536  0.20116983     0.18900
H152        H  0.37260586  0.41222639  0.28442515     0.18900
C153        C  0.45918411  0.37720438  0.24954791    -0.06900
C154        C  0.44374428  0.35762016  0.27631291    -0.18000
C155        C  0.45258112  0.33037876  0.27985460     0.10300
C156        C  0.47697502  0.32220776  0.25455891    -0.06800
C157        C  0.49224010  0.34181453  0.22749586    -0.18100
C158        C  0.48354107  0.36902260  0.22427547     0.10300
S159        S  0.43283188  0.30771220  0.32004497    -0.33000
S160        S  0.50386625  0.39185454  0.18534520    -0.33000
H161        H  0.48135160  0.40670650  0.16624874     0.28300
H162        H  0.45584873  0.29449744  0.34118528     0.28300
H163        H  0.42531257  0.36384408  0.29653393     0.18900
H164        H  0.51076373  0.33574841  0.20739539     0.18900
C165        C  0.27657201  0.22537821  0.48833917    -0.06900
C166        C  0.26002809  0.22627451  0.44447045    -0.18000
C167        C  0.24012398  0.24675712  0.43843721     0.10300
C168        C  0.23629197  0.26642140  0.47759928    -0.06800
C169        C  0.25102329  0.26794324  0.02063158    -0.18100
C170        C  0.27057458  0.24753850  0.02960209     0.10300
S171        S  0.22117404  0.24739253  0.37926777    -0.33000
S172        S  0.29016815  0.25002437  0.08777391    -0.33000
H173        H  0.29163726  0.22156956  0.09626708     0.28300
H174        H  0.21700037  0.27594607  0.37841414     0.28300
H175        H  0.26306273  0.21126459  0.41420533     0.18900
H176        H  0.24905455  0.28474902  0.04776504     0.18900
C177        C  0.42528751  0.21745076  0.00440305    -0.06900
C178        C  0.40738337  0.22848040  0.04118149    -0.18000
C179        C  0.38025570  0.21934965  0.04525331     0.10300
C180        C  0.37029391  0.19944743  0.01054880    -0.06800
C181        C  0.39243870  0.18613292  0.47227521    -0.18100
C182        C  0.41981790  0.19485456  0.47026136     0.10300
S183        S  0.35999095  0.23275598  0.09735309    -0.33000
S184        S  0.44189551  0.17884907  0.42341039    -0.33000
H185        H  0.45557847  0.20317650  0.40978118     0.28300
H186        H  0.34429446  0.20883120  0.10442833     0.28300
H187        H  0.41482504  0.24381003  0.06791311     0.18900
H188        H  0.38563674  0.17012245  0.44636529     0.18900
C189        C  0.30135346  0.12817454  0.49858176    -0.06900
C190        C  0.31494333  0.10857174  0.46827794    -0.18000
C191        C  0.30693890  0.08094076  0.46887042     0.10300
C192        C  0.28478864  0.07262216  0.50029730    -0.06800
C193        C  0.26794467  0.09160739  0.03175211    -0.18100
C194        C  0.27573131  0.11915538  0.03405511     0.10300
S195        S  0.32405473  0.05774358  0.42559200    -0.33000
S196        S  0.25594034  0.14131778  0.07547700    -0.33000
H197        H  0.27863256  0.15650144  0.09306074     0.28300
H198        H  0.33595937  0.04254062  0.46547804     0.28300
H199        H  0.33151657  0.11491339  0.44324614     0.18900
H200        H  0.25009046  0.08502685  0.05328033     0.18900
C201        C  0.34418158  0.19112474  0.50113210     0.79400
N202        N  0.32462709  0.21092684  0.49746590    -0.78900
C203        C  0.29446955  0.20412143  0.00064511     0.81900
N204        N  0.28741817  0.17720444  0.99980138    -0.78800
C205        C  0.30689459  0.15741971  0.00431361     0.82000
N206        N  0.33670214  0.16424691  0.49969567    -0.80500
C207        C  0.41508251  0.44086314  0.74411773     0.79400
N208        N  0.42270838  0.41406990  0.74144544    -0.78900
C209        C  0.44966274  0.40706848  0.74468685     0.81900
N210        N  0.46878578  0.42691839  0.75196605    -0.78800
C211        C  0.46134948  0.45361985  0.75590176     0.82000
N212        N  0.43446320  0.46045539  0.75166963    -0.80500
C213        C  0.19820271  0.33374419  0.97862434     0.79400
N214        N  0.17138288  0.32617187  0.97950965    -0.78900
C215        C  0.16438351  0.29920338  0.97693429     0.81900
N216        N  0.18441667  0.27977574  0.97497422    -0.78800
C217        C  0.21128763  0.28722866  0.97506515     0.82000
N218        N  0.21806301  0.31421503  0.97715583    -0.80500
O219        O  0.24570583  0.47392428  0.82249304    -0.75200
O220        O  0.24524142  0.47406510  0.67593675    -0.75200
O221        O  0.28208221  0.46002324  0.74831494    -0.75300
O222        O  0.20879739  0.48780047  0.75000339    -0.75300
O223        O  0.22667384  0.02969791  0.75644063    -0.75300
O224        O  0.30015154  0.00199114  0.75321517    -0.75200
O225        O  0.26318622  0.01666105  0.68149444    -0.75200
O226        O  0.26389668  0.01526625  0.82787677    -0.75300
Ni227      Ni  0.24486476  0.47243260  0.74919377     1.25400
Ni228      Ni  0.26404667  0.01743360  0.75478682     1.25400
C229        C  0.25381520  0.49537711  0.84648060     0.87000
C230        C  0.25331945  0.49554231  0.65221892     0.86900
C231        C  0.30225631  0.47683016  0.74826254     0.86900
C232        C  0.20659282  0.01273111  0.75666885     0.87100
O233        O  0.21889595  0.46667363  0.49896168    -0.75200
O234        O  0.24739267  0.03917291  0.00296430    -0.75200
O235        O  0.23405054  0.00154727  0.93068309    -0.75300
O236        O  0.23442788  0.00373216  0.57700701    -0.75300
O237        O  0.27524872  0.48723866  0.57296642    -0.75300
O238        O  0.27520644  0.48703702  0.92587034    -0.75200
O239        O  0.29147596  0.02400506  0.50286578    -0.75200
O240        O  0.26027347  0.44954111  0.99627301    -0.75300
Ni241      Ni  0.23234523  0.00290489  0.00395702     1.25400
Ni242      Ni  0.27628253  0.48540562  0.99902792     1.25400
C243        C  0.23422617  0.44591899  0.99599147     0.87000
C244        C  0.27332453  0.04362212  0.00284899     0.86900
C245        C  0.25383564  0.49537473  0.90218221     0.86900
C246        C  0.25367902  0.49548255  0.59648313     0.87100
C247        C  0.06039431  0.08464632  0.76214853     0.79400
N248        N  0.04057705  0.06508266  0.76241734    -0.78900
C249        C  0.04720430  0.03811868  0.76088115     0.81900
N250        N  0.07399200  0.03067184  0.75974070    -0.78800
C251        C  0.09408731  0.04994918  0.75864672     0.82000
N252        N  0.08723438  0.07700978  0.75991226    -0.80500
O253        O  0.48450480  0.23725476  0.67698755    -0.75200
O254        O  0.48169744  0.23804876  0.82339640    -0.75200
O255        O  0.46936746  0.27445091  0.74890231    -0.75300
O256        O  0.49695762  0.20108029  0.75136506    -0.75300
O257        O  0.03993827  0.21691110  0.75335557    -0.75300
O258        O  0.01235823  0.29034739  0.75115677    -0.75200
O259        O  0.02480142  0.25395194  0.82554546    -0.75200
O260        O  0.02748567  0.25324735  0.67898677    -0.75300
Ni261      Ni  0.48159648  0.23714522  0.75009370     1.25400
Ni262      Ni  0.02768158  0.25421262  0.75238001     1.25400
C263        C  0.00644071  0.24497077  0.65408644     0.87000
C264        C  0.00290586  0.24607325  0.84834631     0.86900
C265        C  0.48629826  0.29453530  0.75002999     0.86900
C266        C  0.02295606  0.19687075  0.75199720     0.87100
O267        O  0.47373878  0.21044170  0.00192437    -0.75200
O268        O  0.05105164  0.23581826  0.49865455    -0.75200
O269        O  0.01479264  0.22306947  0.57446929    -0.75300
O270        O  0.01007518  0.22408784  0.92741596    -0.75300
O271        O  0.49431310  0.26709297  0.92858877    -0.75300
O272        O  0.49936349  0.26629575  0.57442725    -0.75200
O273        O  0.03205966  0.28051662  0.00025877    -0.75200
O274        O  0.46163440  0.25243976  0.50317258    -0.75300
Ni275      Ni  0.01460943  0.22102201  0.50100207     1.25400
Ni276      Ni  0.49804218  0.26729815  0.50135435     1.25400
C277        C  0.45720849  0.22651839  0.50268739     0.87000
C278        C  0.05545544  0.26172905  0.49775336     0.86900
C279        C  0.00709881  0.24476755  0.59832477     0.86900
C280        C  0.00227866  0.24575101  0.90407256     0.87100
C281        C  0.05214769  0.11379744  0.75959752    -0.06900
C282        C  0.02892577  0.12025215  0.73025169    -0.18000
C283        C  0.01968888  0.14717062  0.72535972     0.10300
C284        C  0.03343843  0.16846973  0.75161908    -0.06800
C285        C  0.05713526  0.16225602  0.77990352    -0.18100
C286        C  0.06649060  0.13519602  0.78458011     0.10300
S287        S  0.99109469  0.15294667  0.68292893    -0.33000
S288        S  0.09572149  0.12933143  0.82528706    -0.33000
H289        H  0.08530163  0.10508211  0.84699981     0.28300
H290        H  0.00167099  0.17744858  0.66243445     0.28300
H291        H  0.01817881  0.10422688  0.70966052     0.18900
H292        H  0.06783636  0.17845282  0.80025361     0.18900
C293        C  0.17809137  0.02298871  0.75796335    -0.06900
C294        C  0.15862194  0.00965324  0.72727768    -0.18000
C295        C  0.13148780  0.01876442  0.72504687     0.10300
C296        C  0.12311300  0.04133925  0.75549324    -0.06800
C297        C  0.14263450  0.05492320  0.78582935    -0.18100
C298        C  0.16989323  0.04582653  0.78787612     0.10300
S299        S  0.10906592  0.00149477  0.68048804    -0.33000
S300        S  0.19263688  0.06310449  0.83178045    -0.33000
H301        H  0.20616544  0.03909869  0.84771229     0.28300
H302        H  0.09495361  0.02538861  0.66573101     0.28300
H303        H  0.16479749  0.99241671  0.70354817     0.18900
H304        H  0.13636415  0.07205019  0.80974827     0.18900
C305        C  0.22343561  0.41780022  0.99127119    -0.06900
C306        C  0.23336299  0.40140475  0.95110997    -0.18000
C307        C  0.22442811  0.37436673  0.94475380     0.10300
C308        C  0.20587864  0.36296610  0.98043702    -0.06800
C309        C  0.19459327  0.38066477  0.51619023    -0.18100
C310        C  0.20255575  0.40817659  0.52167441     0.10300
S311        S  0.23679800  0.35579854  0.88948359    -0.33000
S312        S  0.18418068  0.42906541  0.56716405    -0.33000
H313        H  0.17360566  0.44646600  0.52913507     0.28300
H314        H  0.21281681  0.34017488  0.88230517     0.28300
H315        H  0.24785361  0.40991590  0.92389591     0.18900
H316        H  0.17762138  0.37296037  0.53884982     0.18900
C317        C  0.13522732  0.29101277  0.97966573    -0.06900
C318        C  0.12154878  0.30168104  0.51771131    -0.18000
C319        C  0.09442663  0.29288286  0.52430623     0.10300
C320        C  0.08387797  0.27183363  0.49280790    -0.06800
C321        C  0.09703565  0.26182102  0.95484904    -0.18100
C322        C  0.12400461  0.27073448  0.94710002     0.10300
S323        S  0.07486842  0.30755677  0.57607252    -0.33000
S324        S  0.14237868  0.25647999  0.89332179    -0.32200
H325        H  0.15715031  0.28054795  0.88218332     0.28300
H326        H  0.05644907  0.32079861  0.54291824     0.28300
H327        H  0.12972739  0.31719963  0.54326595     0.18900
H328        H  0.08866541  0.24612830  0.92986600     0.18900
C329        C  0.48241738  0.47534153  0.76014830    -0.06900
C330        C  0.47760797  0.50021651  0.73482221    -0.18000
C331        C  0.00070967  0.02044268  0.73277678     0.10300
C332        C  0.02555147  0.01695769  0.75991802    -0.06800
C333        C  0.02976859  0.99268108  0.78754932    -0.18100
C334        C  0.50779775  0.47140996  0.78536377     0.10300
S335        S  0.99408736  0.04905065  0.69100297    -0.33000
S336        S  0.51550236  0.44151827  0.82320608    -0.33000
H337        H  0.48878380  0.43889134  0.84319570     0.28300
H338        H  0.02105663  0.05040604  0.67174536     0.28300
H339        H  0.45848678  0.50338914  0.71460638     0.18900
H340        H  0.04864167  0.98986994  0.80881959     0.18900
C341        C  0.33071960  0.46633928  0.74647008    -0.06900
C342        C  0.35030658  0.48176157  0.71959565    -0.18000
C343        C  0.37750439  0.47302150  0.71540446     0.10300
C344        C  0.38589303  0.44875973  0.74040618    -0.06800
C345        C  0.36617884  0.43274435  0.76570673    -0.18100
C346        C  0.33879494  0.44128287  0.76927941     0.10300
S347        S  0.39999654  0.49306359  0.67529578    -0.33000
S348        S  0.31579264  0.42002789  0.80601136    -0.33000
H349        H  0.30315390  0.44214638  0.83158641     0.28300
H350        H  0.41529467  0.47051517  0.65721590     0.28300
H351        H  0.34423422  0.50047980  0.70044587     0.18900
H352        H  0.37237391  0.41407574  0.78487624     0.18900
C353        C  0.45819068  0.37804447  0.74214499    -0.06900
C354        C  0.44221941  0.35839233  0.76766147    -0.18000
C355        C  0.45099231  0.33115324  0.77180375     0.10300
C356        C  0.47601792  0.32303641  0.74867648    -0.06800
C357        C  0.49166142  0.34261699  0.72228278    -0.18100
C358        C  0.48292726  0.36979879  0.71819339     0.10300
S359        S  0.43024756  0.30843506  0.81009372    -0.33000
S360        S  0.50376824  0.39250203  0.67995105    -0.33000
H361        H  0.48146843  0.40719002  0.65957017     0.28300
H362        H  0.45270857  0.29574491  0.83419593     0.28300
H363        H  0.42340192  0.36456220  0.78665739     0.18900
H364        H  0.51059017  0.33656123  0.70353482     0.18900
C365        C  0.27306155  0.22532586  0.99508291    -0.06900
C366        C  0.25502289  0.22359171  0.95336607    -0.18000
C367        C  0.23519791  0.24387712  0.94471663     0.10300
C368        C  0.23298842  0.26624956  0.97899877    -0.06800
C369        C  0.25298583  0.26565221  0.52111814    -0.18100
C370        C  0.27266232  0.24511236  0.52735294     0.10300
S371        S  0.21432636  0.24064298  0.88817997    -0.33000
S372        S  0.29059451  0.24415925  0.58748587    -0.33000
H373        H  0.29279715  0.21541228  0.58967179     0.28300
H374        H  0.21094013  0.26897595  0.88032079     0.28300
H375        H  0.25686977  0.20664433  0.92652301     0.18900
H376        H  0.24986072  0.28054605  0.55156706     0.18900
C377        C  0.42865935  0.21645573  0.50252108    -0.06900
C378        C  0.40981895  0.22870567  0.53612630    -0.18000
C379        C  0.38258041  0.21981243  0.53847808     0.10300
C380        C  0.37344325  0.19883740  0.50513295    -0.06800
C381        C  0.38837016  0.18791806  0.97451800    -0.18100
C382        C  0.41564225  0.19682165  0.97081007     0.10300
S383        S  0.36109503  0.23494473  0.58702951    -0.33000
S384        S  0.43653116  0.18224910  0.92054615    -0.33000
H385        H  0.45056574  0.20670520  0.90914309     0.28300
H386        H  0.34612802  0.21081850  0.59675177     0.28300
H387        H  0.41657339  0.24484898  0.56180841     0.18900
H388        H  0.38088842  0.17267933  0.94765686     0.18900
C389        C  0.29886318  0.12819276  0.00600583    -0.06900
C390        C  0.31430103  0.10893794  0.97804725    -0.18000
C391        C  0.30682888  0.08117555  0.97676769     0.10300
C392        C  0.28319763  0.07233125  0.00359358    -0.06800
C393        C  0.27126337  0.09228278  0.53044275    -0.18100
C394        C  0.27953642  0.11971523  0.53062763     0.10300
S395        S  0.32691285  0.05849229  0.93716348    -0.33000
S396        S  0.26210005  0.14257598  0.57435002    -0.33000
H397        H  0.28565151  0.15778516  0.58729234     0.28300
H398        H  0.33703774  0.04377475  0.97934950     0.28300
H399        H  0.33199897  0.11564523  0.95622588     0.18900
H400        H  0.25444209  0.08609542  0.55504780     0.18900
C401        C  0.34417951  0.68985492  0.01592236     0.79400
N402        N  0.32481131  0.70993271  0.01316628    -0.78900
C403        C  0.29905519  0.70504967  0.50207207     0.81900
N404        N  0.29116213  0.67840407  0.50057460    -0.78800
C405        C  0.30969247  0.65787358  0.50653609     0.82000
N406        N  0.33635511  0.66306626  0.01517085    -0.80500
C407        C  0.41738291  0.94051870  0.24132638     0.79400
N408        N  0.42473980  0.91361367  0.23851146    -0.78900
C409        C  0.45169192  0.90634922  0.24060038     0.81900
N410        N  0.47108796  0.92602644  0.24684279    -0.78800
C411        C  0.46391389  0.95277905  0.25095411     0.82000
N412        N  0.43706703  0.95987090  0.24804153    -0.80500
C413        C  0.20192658  0.83422779  0.48653213     0.79400
N414        N  0.17512104  0.82653129  0.48653111    -0.78900
C415        C  0.16829055  0.79953200  0.48274555     0.81900
N416        N  0.18845407  0.78023039  0.48018078    -0.78800
C417        C  0.21527806  0.78787408  0.48121688     0.82000
N418        N  0.22183033  0.81481283  0.48479961    -0.80500
O419        O  0.24825719  0.97305381  0.32712445    -0.75200
O420        O  0.24695992  0.97383717  0.18066332    -0.75200
O421        O  0.28430355  0.95968021  0.25196902    -0.75300
O422        O  0.21087753  0.98717317  0.25558380    -0.75300
O423        O  0.22500059  0.52858105  0.25057977    -0.75300
O424        O  0.29863407  0.50109651  0.24717450    -0.75200
O425        O  0.26106064  0.51479482  0.17568727    -0.75200
O426        O  0.26272058  0.51531676  0.32194718    -0.75300
Ni427      Ni  0.24701346  0.97191173  0.25385141     1.25400
Ni428      Ni  0.26243482  0.51648253  0.24878400     1.25400
C429        C  0.25637989  0.99446253  0.35120141     0.87000
C430        C  0.25486615  0.99540076  0.15703975     0.86900
C431        C  0.30441538  0.97656956  0.25171747     0.86900
C432        C  0.20499916  0.51152304  0.25189885     0.87100
O433        O  0.22040057  0.96550111  0.00515777    -0.75200
O434        O  0.24716177  0.54006570  0.49908940    -0.75200
O435        O  0.23337309  0.50299886  0.42570466    -0.75300
O436        O  0.23176278  0.50202537  0.07268954    -0.75300
O437        O  0.27670116  0.98731182  0.07762769    -0.75300
O438        O  0.27782816  0.98667258  0.43076911    -0.75200
O439        O  0.28924625  0.52255975  0.00154626    -0.75200
O440        O  0.26380520  0.95051110  0.50427248    -0.75300
Ni441      Ni  0.23144843  0.50396746  0.49896205     1.25400
Ni442      Ni  0.27917772  0.98664667  0.50398512     1.25400
C443        C  0.23782239  0.94643097  0.50407956     0.87000
C444        C  0.27318044  0.54418492  0.49992764     0.86900
C445        C  0.25634126  0.99450883  0.40684504     0.86900
C446        C  0.25509730  0.99535601  0.10129904     0.87100
C447        C  0.05899495  0.58290998  0.26048848     0.79400
N448        N  0.03899007  0.56357764  0.26261721    -0.78900
C449        C  0.04535828  0.53652278  0.26161330     0.81900
N450        N  0.07204956  0.52878165  0.25903892    -0.78800
C451        C  0.09227077  0.54786840  0.25595715     0.82000
N452        N  0.08566540  0.57497109  0.25676895    -0.80500
O453        O  0.48496903  0.73716219  0.17939470    -0.75200
O454        O  0.48432885  0.73720317  0.32594544    -0.75200
O455        O  0.47135668  0.77412681  0.25247079    -0.75300
O456        O  0.49785727  0.70037961  0.25253116    -0.75300
O457        O  0.04098358  0.71559086  0.25308052    -0.75300
O458        O  0.01440902  0.78955133  0.25254830    -0.75200
O459        O  0.02746638  0.75266030  0.32623894    -0.75200
O460        O  0.02815740  0.75237881  0.17974069    -0.75300
Ni461      Ni  0.48308849  0.73667524  0.25262562     1.25400
Ni462      Ni  0.02929968  0.75312631  0.25299937     1.25400
C463        C  0.00662623  0.74468953  0.15570060     0.87000
C464        C  0.00586412  0.74482203  0.35000030     0.86900
C465        C  0.48853149  0.79400235  0.25224719     0.86900
C466        C  0.02366867  0.69581377  0.25204597     0.87100
O467        O  0.47805388  0.70947885  0.50418831    -0.75200
O468        O  0.05027610  0.73773754  0.99991498    -0.75200
O469        O  0.01468293  0.72347028  0.07549440    -0.75300
O470        O  0.01406285  0.72310379  0.42931245    -0.75300
O471        O  0.49814067  0.76607780  0.42995282    -0.75300
O472        O  0.49835288  0.76630389  0.07677980    -0.75200
O473        O  0.03579776  0.77993976  0.50152004    -0.75200
O474        O  0.46057924  0.75207422  0.00622994    -0.75300
Ni475      Ni  0.01422747  0.72198270  0.00208460     1.25400
Ni476      Ni  0.49658243  0.76784543  0.00376117     1.25400
C477        C  0.45675446  0.72606022  0.00583434     0.87000
C478        C  0.05404080  0.76374942  0.00001563     0.86900
C479        C  0.00664675  0.74482091  0.09999288     0.86900
C480        C  0.00591824  0.74460662  0.40575043     0.87100
C481        C  0.05119727  0.61216332  0.25823833    -0.06900
C482        C  0.02789501  0.61910100  0.22955082    -0.18000
C483        C  0.01923683  0.64624347  0.22492228     0.10300
C484        C  0.03363535  0.66722513  0.25092221    -0.06800
C485        C  0.05739932  0.66048010  0.27852992    -0.18100
C486        C  0.06620560  0.63323256  0.28284035     0.10300
S487        S  0.99052053  0.65272077  0.18314569    -0.33000
S488        S  0.09565761  0.62671983  0.32266211    -0.33000
H489        H  0.08500356  0.60259511  0.34446588     0.28300
H490        H  0.00137166  0.67716474  0.16290633     0.28300
H491        H  0.01665694  0.60327944  0.20927640     0.18900
H492        H  0.06858712  0.67641701  0.29868484     0.18900
C493        C  0.17644616  0.52157564  0.25336182    -0.06900
C494        C  0.15667060  0.50716953  0.22506837    -0.18000
C495        C  0.12937172  0.51583533  0.22357991     0.10300
C496        C  0.12123701  0.53917766  0.25216742    -0.06800
C497        C  0.14107454  0.55380707  0.28000518    -0.18100
C498        C  0.16842546  0.54508107  0.28151610     0.10300
S499        S  0.10641507  0.49690342  0.18244935    -0.33000
S500        S  0.19151303  0.56369971  0.32280320    -0.33000
H501        H  0.20507323  0.54018465  0.34102084     0.28300
H502        H  0.09190064  0.52014769  0.16562608     0.28300
H503        H  0.16268227  0.48934483  0.20274596     0.18900
H504        H  0.13500681  0.57152369  0.30257276     0.18900
C505        C  0.22751625  0.91811195  0.50018938    -0.06900
C506        C  0.23924935  0.90106024  0.46282296    -0.18000
C507        C  0.23026342  0.87412303  0.45600154     0.10300
C508        C  0.20971310  0.86341884  0.48856855    -0.06800
C509        C  0.19808719  0.87974707  0.03124008    -0.18100
C510        C  0.20672846  0.90707094  0.03576632     0.10300
S511        S  0.24517272  0.85487660  0.40376769    -0.33000
S512        S  0.19260419  0.92745891  0.08700379    -0.33000
H513        H  0.17998246  0.94615998  0.05361146     0.28300
H514        H  0.22112982  0.84019592  0.39187897     0.28300
H515        H  0.25510314  0.90904114  0.43776780     0.18900
H516        H  0.18284804  0.87189326  0.05768628     0.18900
C517        C  0.13915416  0.79114384  0.48450301    -0.06900
C518        C  0.12111171  0.79938050  0.03234981    -0.18000
C519        C  0.09362442  0.79114080  0.03585366     0.10300
C520        C  0.08226174  0.77446929  0.99704478    -0.06800
C521        C  0.10091819  0.76290216  0.45609809    -0.18100
C522        C  0.12792747  0.77206053  0.44949531     0.10300
S523        S  0.07468671  0.80049117  0.09253555    -0.33000
S524        S  0.14637029  0.75972191  0.39416611    -0.32200
H525        H  0.16151298  0.78394438  0.38644086     0.28300
H526        H  0.05332610  0.81318023  0.06536191     0.28300
H527        H  0.13001499  0.81137076  0.06312224     0.18900
H528        H  0.09253416  0.74810279  0.42930601     0.18900
C529        C  0.48511977  0.97428430  0.25482353    -0.06900
C530        C  0.48081719  0.99879357  0.22805146    -0.18000
C531        C  0.99860783  0.51893456  0.23537063     0.10300
C532        C  0.02349466  0.51559425  0.26237300    -0.06800
C533        C  0.02758355  0.49168392  0.29118525    -0.18100
C534        C  0.51000610  0.97057132  0.28171456     0.10300
S535        S  0.99205523  0.54713218  0.19259059    -0.33000
S536        S  0.51697339  0.94099085  0.32087875    -0.33000
H537        H  0.48990005  0.93844616  0.33916055     0.28300
H538        H  0.01891680  0.54795070  0.17270662     0.28300
H539        H  0.46211847  0.00166483  0.20638314     0.18900
H540        H  0.04647107  0.48905262  0.31248458     0.18900
C541        C  0.33296884  0.96625248  0.24883957    -0.06900
C542        C  0.35252444  0.98267287  0.22403305    -0.18000
C543        C  0.37970112  0.97411455  0.21833206     0.10300
C544        C  0.38816329  0.94879400  0.23949355    -0.06800
C545        C  0.36849299  0.93195315  0.26303945    -0.18100
C546        C  0.34115756  0.94043155  0.26834106     0.10300
S547        S  0.40197154  0.99599026  0.18126297    -0.33000
S548        S  0.31840487  0.91800302  0.30310200    -0.33000
H549        H  0.30626667  0.93924763  0.33192331     0.28300
H550        H  0.41654890  0.97428112  0.15819546     0.28300
H551        H  0.34644788  0.00211456  0.20757168     0.18900
H552        H  0.37468642  0.91257180  0.27957733     0.18900
C553        C  0.46000681  0.87722769  0.23918123    -0.06900
C554        C  0.44471824  0.85822280  0.26764647    -0.18000
C555        C  0.45380966  0.83119558  0.27384094     0.10300
C556        C  0.47841930  0.82256670  0.24980621    -0.06800
C557        C  0.49336242  0.84146538  0.22043400    -0.18100
C558        C  0.48432455  0.86846428  0.21435407     0.10300
S559        S  0.43407313  0.80947168  0.31580737    -0.33000
S560        S  0.50424008  0.89027968  0.17273811    -0.33000
H561        H  0.48157243  0.90493571  0.15373181     0.28300
H562        H  0.45708950  0.79699334  0.33843600     0.28300
H563        H  0.42628904  0.86482767  0.28744689     0.18900
H564        H  0.51190809  0.83496879  0.20087832     0.18900
C565        C  0.27822625  0.72683369  0.49657893    -0.06900
C566        C  0.25961822  0.72513416  0.45571198    -0.18000
C567        C  0.23944169  0.74521635  0.44846917     0.10300
C568        C  0.23730436  0.76720144  0.48354933    -0.06800
C569        C  0.25725409  0.76985404  0.02428640    -0.18100
C570        C  0.27743603  0.74995765  0.03217373     0.10300
S571        S  0.21805885  0.74235524  0.39256228    -0.33000
S572        S  0.30227214  0.75698239  0.08121672    -0.33000
H573        H  0.30166154  0.73017479  0.10105461     0.28300
H574        H  0.21487710  0.77077212  0.38534574     0.28300
H575        H  0.26116971  0.70828444  0.42859148     0.18900
H576        H  0.25825582  0.78879836  0.04615563     0.18900
C577        C  0.42846330  0.71541853  0.00869413    -0.06900
C578        C  0.41112381  0.72598929  0.04680512    -0.18000
C579        C  0.38416115  0.71663207  0.05220741     0.10300
C580        C  0.37361710  0.69718325  0.01720490    -0.06800
C581        C  0.39274118  0.68531138  0.48074398    -0.18100
C582        C  0.42004662  0.69412908  0.47630313     0.10300
S583        S  0.36506426  0.72896520  0.10664903    -0.33000
S584        S  0.44115968  0.67779650  0.42830337    -0.33000
H585        H  0.45494114  0.70188435  0.41356826     0.28300
H586        H  0.34880073  0.70531572  0.11226922     0.28300
H587        H  0.41892280  0.74111910  0.07358440     0.18900
H588        H  0.38532883  0.66929810  0.45543443     0.18900
C589        C  0.30043785  0.62876430  0.50703820    -0.06900
C590        C  0.31861522  0.60823098  0.49015677    -0.18000
C591        C  0.31074957  0.58057021  0.48817384     0.10300
C592        C  0.28364524  0.57291551  0.50204041    -0.06800
C593        C  0.26673409  0.59140186  0.02942962    -0.18100
C594        C  0.27511670  0.61869745  0.03424253     0.10300
S595        S  0.33608320  0.55644449  0.46580974    -0.33000
S596        S  0.25289104  0.64118452  0.07041754    -0.33000
H597        H  0.27448152  0.65471377  0.09581616     0.28300
H598        H  0.33785378  0.54339386  0.51368786     0.28300
H599        H  0.33915325  0.61373992  0.47796433     0.18900
H600        H  0.24709726  0.58549425  0.04554359     0.18900
C601        C  0.34500902  0.69097946  0.51252491     0.79400
N602        N  0.32602667  0.71130573  0.50807847    -0.78900
C603        C  0.29775214  0.70335173  0.00963892     0.81900
N604        N  0.29028628  0.67654772  0.00871154    -0.78800
C605        C  0.30929711  0.65629646  0.01256740     0.82000
N606        N  0.33677693  0.66429062  0.51145287    -0.80500
C607        C  0.41759247  0.94126907  0.74635334     0.79400
N608        N  0.42528730  0.91448331  0.74420626    -0.78900
C609        C  0.45222677  0.90753919  0.74792606     0.81900
N610        N  0.47131315  0.92741802  0.75504357    -0.78800
C611        C  0.46381738  0.95411197  0.75841245     0.82000
N612        N  0.43693741  0.96090658  0.75386233    -0.80500
C613        C  0.20109498  0.83321897  0.99272514     0.79400
N614        N  0.17411996  0.82618270  0.99315110    -0.78900
C615        C  0.16666880  0.79935177  0.99023583     0.81900
N616        N  0.18630548  0.77951627  0.98825281    -0.78800
C617        C  0.21334332  0.78641672  0.98874248     0.82000
N618        N  0.22052303  0.81329149  0.99115880    -0.80500
O619        O  0.24782898  0.97233946  0.82675853    -0.75200
O620        O  0.24720574  0.97370600  0.68005910    -0.75200
O621        O  0.28418149  0.95914746  0.75178266    -0.75300
O622        O  0.21074331  0.98678600  0.75481292    -0.75300
O623        O  0.22472185  0.53072699  0.75065649    -0.75300
O624        O  0.29820031  0.50283268  0.74856148    -0.75200
O625        O  0.26124912  0.51702033  0.67628119    -0.75200
O626        O  0.26185965  0.51682759  0.82271594    -0.75300
Ni627      Ni  0.24689582  0.97145797  0.75332132     1.25400
Ni628      Ni  0.26209215  0.51839726  0.74953740     1.25400
C629        C  0.25588223  0.99367141  0.85121605     0.87000
C630        C  0.25533466  0.99534383  0.65686856     0.86900
C631        C  0.30431142  0.97601969  0.75198602     0.86900
C632        C  0.20465076  0.51374216  0.75109187     0.87100
O633        O  0.22087615  0.96649867  0.50451571    -0.75200
O634        O  0.24671018  0.53926626  0.00142931    -0.75200
O635        O  0.23241193  0.50353028  0.92624830    -0.75300
O636        O  0.23244408  0.50367212  0.57221098    -0.75300
O637        O  0.27738319  0.98767452  0.57736244    -0.75300
O638        O  0.27724779  0.98614609  0.93105886    -0.75200
O639        O  0.28984407  0.52387352  0.50009940    -0.75200
O640        O  0.26345998  0.94987559  0.00476888    -0.75300
Ni641      Ni  0.23060880  0.50339306  0.99951666     1.25400
Ni642      Ni  0.27851579  0.98618809  0.00432980     1.25400
C643        C  0.23750818  0.94557125  0.00508404     0.87000
C644        C  0.27276810  0.54303123  0.00239515     0.86900
C645        C  0.25568485  0.99363594  0.90697205     0.86900
C646        C  0.25576051  0.99565515  0.60109213     0.87100
C647        C  0.05817845  0.58408754  0.75894766     0.79400
N648        N  0.03833623  0.56458595  0.75970410    -0.78900
C649        C  0.04490357  0.53761782  0.75739124     0.81900
N650        N  0.07170166  0.53014770  0.75507672    -0.78800
C651        C  0.09178166  0.54946307  0.75356750     0.82000
N652        N  0.08493370  0.57646881  0.75552927    -0.80500
O653        O  0.48468861  0.73815684  0.67894859    -0.75200
O654        O  0.48275369  0.73825958  0.82554908    -0.75200
O655        O  0.47072803  0.77523872  0.75200507    -0.75300
O656        O  0.49664453  0.70137208  0.75248796    -0.75300
O657        O  0.03996448  0.71625351  0.75407883    -0.75300
O658        O  0.01403819  0.79021033  0.75367506    -0.75200
O659        O  0.02612428  0.75314721  0.82705490    -0.75200
O660        O  0.02808911  0.75312390  0.68063805    -0.75300
Ni661      Ni  0.48213959  0.73772988  0.75219053     1.25400
Ni662      Ni  0.02858990  0.75376106  0.75395736     1.25400
C663        C  0.00680259  0.74540366  0.65588091     0.87000
C664        C  0.00423434  0.74556423  0.85015623     0.86900
C665        C  0.48809825  0.79492970  0.75313394     0.86900
C666        C  0.02252046  0.69662997  0.75256979     0.87100
O667        O  0.47701373  0.70932094  0.00398883    -0.75200
O668        O  0.05173671  0.73702092  0.50045831    -0.75200
O669        O  0.01557873  0.72371905  0.57614362    -0.75300
O670        O  0.01257591  0.72365198  0.92896468    -0.75300
O671        O  0.49590764  0.76642477  0.93048258    -0.75300
O672        O  0.49942908  0.76663900  0.57622553    -0.75200
O673        O  0.03375581  0.78045429  0.00149795    -0.75200
O674        O  0.46206971  0.75239904  0.50487164    -0.75300
Ni675      Ni  0.01546968  0.72178217  0.50261767     1.25400
Ni676      Ni  0.49830373  0.76778333  0.50316401     1.25400
C677        C  0.45795285  0.72641235  0.50497312     0.87000
C678        C  0.05588245  0.76297389  0.49997154     0.86900
C679        C  0.00746193  0.74524154  0.60010337     0.86900
C680        C  0.00401124  0.74510618  0.90584357     0.87100
C681        C  0.05014553  0.61321589  0.75762591    -0.06900
C682        C  0.02721435  0.62028053  0.72803969    -0.18000
C683        C  0.01842890  0.64738025  0.72405284     0.10300
C684        C  0.03237762  0.66811162  0.75147319    -0.06800
C685        C  0.05573312  0.66124982  0.78012482    -0.18100
C686        C  0.06463600  0.63404948  0.78387328     0.10300
S687        S  0.99021856  0.65417261  0.68125344    -0.33000
S688        S  0.09353840  0.62726155  0.82491596    -0.33000
H689        H  0.08286184  0.60269189  0.84487662     0.28300
H690        H  0.00126249  0.67880258  0.66220054     0.28300
H691        H  0.01642711  0.60462963  0.70652222     0.18900
H692        H  0.06653226  0.67704664  0.80137888     0.18900
C693        C  0.17613369  0.52386422  0.75188176    -0.06900
C694        C  0.15676894  0.51005929  0.72165182    -0.18000
C695        C  0.12944640  0.51859707  0.71985738     0.10300
C696        C  0.12085373  0.54114685  0.75008571    -0.06800
C697        C  0.14030992  0.55529724  0.77970049    -0.18100
C698        C  0.16771143  0.54671199  0.78148184     0.10300
S699        S  0.10703283  0.50056202  0.67636998    -0.33000
S700        S  0.19030822  0.56454855  0.82487231    -0.33000
H701        H  0.20401735  0.54078284  0.84149675     0.28300
H702        H  0.09240318  0.52407594  0.66126393     0.28300
H703        H  0.16312849  0.49278548  0.69817666     0.18900
H704        H  0.13388299  0.57245713  0.80340675     0.18900
C705        C  0.22735366  0.91713497  0.00271827    -0.06900
C706        C  0.23868885  0.89966046  0.96559482    -0.18000
C707        C  0.22965147  0.87262024  0.96021829     0.10300
C708        C  0.20945511  0.86228787  0.99395903    -0.06800
C709        C  0.19781698  0.88048663  0.52590843    -0.18100
C710        C  0.20639957  0.90776094  0.53180999     0.10300
S711        S  0.24391191  0.85279102  0.90814450    -0.33000
S712        S  0.19157362  0.92766309  0.58300439    -0.33000
H713        H  0.17953025  0.94674586  0.54961649     0.28300
H714        H  0.21964230  0.83820947  0.89751212     0.28300
H715        H  0.25421276  0.90738867  0.93956670     0.18900
H716        H  0.18229060  0.87233666  0.55144196     0.18900
C717        C  0.13739854  0.79174414  0.99029239    -0.06900
C718        C  0.12246016  0.80160769  0.52386816    -0.18000
C719        C  0.09515807  0.79308500  0.52941280     0.10300
C720        C  0.08427635  0.77329287  0.49554556    -0.06800
C721        C  0.09846111  0.76709982  0.95475983    -0.18100
C722        C  0.12564260  0.77608704  0.95039483     0.10300
S723        S  0.07579524  0.80639821  0.58269184    -0.33000
S724        S  0.14377563  0.76785628  0.89211919    -0.32200
H725        H  0.16054339  0.79135329  0.89200458     0.28300
H726        H  0.05643317  0.81944969  0.55120298     0.28300
H727        H  0.13090272  0.81611875  0.55112381     0.18900
H728        H  0.08967887  0.75469184  0.92442998     0.18900
C729        C  0.48484058  0.97582133  0.76252100    -0.06900
C730        C  0.48059937  0.00017523  0.73518692    -0.18000
C731        C  0.99763997  0.52052853  0.73235911     0.10300
C732        C  0.02313918  0.51651870  0.75708528    -0.06800
C733        C  0.02785871  0.49181098  0.78308883    -0.18100
C734        C  0.50971769  0.97227372  0.78957335     0.10300
S735        S  0.98989224  0.55001535  0.69347881    -0.33000
S736        S  0.51679618  0.94283046  0.82903640    -0.33000
H737        H  0.48972337  0.94022699  0.84727992     0.28300
H738        H  0.01613570  0.55136278  0.67098996     0.28300
H739        H  0.46195153  0.00290518  0.71328269     0.18900
H740        H  0.04714844  0.48864309  0.80282268     0.18900
C741        C  0.33286448  0.96575113  0.74939826    -0.06900
C742        C  0.35244782  0.98218831  0.72466560    -0.18000
C743        C  0.37978167  0.97394512  0.72022668     0.10300
C744        C  0.38832297  0.94901694  0.74270353    -0.06800
C745        C  0.36859766  0.93199253  0.76563149    -0.18100
C746        C  0.34110201  0.94010384  0.76956263     0.10300
S747        S  0.40222002  0.99564191  0.68314106    -0.33000
S748        S  0.31820020  0.91750122  0.80357602    -0.33000
H749        H  0.30571458  0.93864758  0.83212218     0.28300
H750        H  0.41755276  0.97388138  0.66202893     0.28300
H751        H  0.34630380  0.00142582  0.70747899     0.18900
H752        H  0.37484769  0.91280318  0.78285753     0.18900
C753        C  0.46076125  0.87855935  0.74606876    -0.06900
C754        C  0.44515370  0.85920521  0.77307999    -0.18000
C755        C  0.45388060  0.83197948  0.77739055     0.10300
C756        C  0.47834822  0.82356309  0.75266016    -0.06800
C757        C  0.49376299  0.84288993  0.72522570    -0.18100
C758        C  0.48517087  0.87010860  0.72123576     0.10300
S759        S  0.43391683  0.80967100  0.81792142    -0.33000
S760        S  0.50574717  0.89259714  0.68207361    -0.33000
H761        H  0.48335533  0.90740634  0.66237238     0.28300
H762        H  0.45680765  0.79651976  0.83965858     0.28300
H763        H  0.42669631  0.86561553  0.79301507     0.18900
H764        H  0.51233653  0.83659084  0.70553620     0.18900
C765        C  0.27637319  0.72488856  0.00489415    -0.06900
C766        C  0.25417187  0.72016760  0.97172586    -0.18000
C767        C  0.23368019  0.73994272  0.96446304     0.10300
C768        C  0.23500986  0.76512163  0.99139286    -0.06800
C769        C  0.25617078  0.76913675  0.52381725    -0.18100
C770        C  0.27618981  0.74904007  0.53125333     0.10300
S771        S  0.20730616  0.73226172  0.91847015    -0.33000
S772        S  0.29677138  0.75184464  0.58809294    -0.33000
H773        H  0.29753081  0.72347832  0.59778194     0.28300
H774        H  0.20632449  0.75906967  0.89873933     0.28300
H775        H  0.25306889  0.70109783  0.95027254     0.18900
H776        H  0.25448229  0.78584291  0.55123347     0.18900
C777        C  0.42952243  0.71599855  0.50729856    -0.06900
C778        C  0.41155537  0.72798041  0.54286550    -0.18000
C779        C  0.38451166  0.71881631  0.54795717     0.10300
C780        C  0.37452486  0.69799359  0.51518719    -0.06800
C781        C  0.39123078  0.68588011  0.98010148    -0.18100
C782        C  0.41847841  0.69482436  0.97537642     0.10300
S783        S  0.36446717  0.73335547  0.59920375    -0.33000
S784        S  0.43888971  0.68033974  0.92435392    -0.33000
H785        H  0.45277041  0.70481854  0.91247330     0.28300
H786        H  0.34873686  0.70961673  0.60798111     0.28300
H787        H  0.41889799  0.74411840  0.56799337     0.18900
H788        H  0.38339053  0.67083052  0.95323263     0.18900
C789        C  0.30052563  0.62711446  0.01303137    -0.06900
C790        C  0.31753877  0.60723208  0.99020765    -0.18000
C791        C  0.30951195  0.57964539  0.98702133     0.10300
C792        C  0.28349261  0.57153326  0.00601645    -0.06800
C793        C  0.26558778  0.59349584  0.51913400    -0.18100
C794        C  0.27373977  0.62091382  0.52301665     0.10300
S795        S  0.33273468  0.55626669  0.95568408    -0.33000
S796        S  0.24934980  0.64423307  0.55170348    -0.33000
H797        H  0.26900142  0.65749381  0.58250623     0.28300
H798        H  0.33801142  0.54173426  0.00108887     0.28300
H799        H  0.33708795  0.61326430  0.97390594     0.18900
H800        H  0.24500998  0.58811473  0.53130370     0.18900
C801        C  0.84112028  0.19165611  0.00804145     0.79400
N802        N  0.82137188  0.21129815  0.00466500    -0.78900
C803        C  0.79777646  0.20395881  0.49214148     0.81900
N804        N  0.79046890  0.17712753  0.49103202    -0.78800
C805        C  0.80977456  0.15718921  0.49567408     0.82000
N806        N  0.83387933  0.16473190  0.00719717    -0.80500
C807        C  0.91579585  0.43968964  0.24746510     0.79400
N808        N  0.92360927  0.41292663  0.24611294    -0.78900
C809        C  0.95048903  0.40611722  0.25163550     0.81900
N810        N  0.96937095  0.42609978  0.25972676    -0.78800
C811        C  0.96170571  0.45277850  0.26236872     0.82000
N812        N  0.93490195  0.45943361  0.25595625    -0.80500
C813        C  0.70111614  0.33355164  0.48094016     0.79400
N814        N  0.67430851  0.32579090  0.48086051    -0.78900
C815        C  0.66750469  0.29876879  0.47722393     0.81900
N816        N  0.68766906  0.27951796  0.47466645    -0.78800
C817        C  0.71444109  0.28717098  0.47573848     0.82000
N818        N  0.72102677  0.31409486  0.47952495    -0.80500
O819        O  0.74686428  0.47227670  0.32306996    -0.75200
O820        O  0.74516670  0.47167111  0.17633025    -0.75200
O821        O  0.78266509  0.45816564  0.24785930    -0.75300
O822        O  0.70926762  0.48551454  0.25131978    -0.75300
O823        O  0.72664113  0.03029208  0.25659895    -0.75300
O824        O  0.80020622  0.00268534  0.25262994    -0.75200
O825        O  0.76281215  0.01699392  0.18121565    -0.75200
O826        O  0.76421422  0.01614257  0.32761427    -0.75300
Ni827      Ni  0.74541670  0.47037069  0.24969483     1.25400
Ni828      Ni  0.76404479  0.01807701  0.25452028     1.25400
C829        C  0.75495693  0.49395776  0.34642776     0.87000
C830        C  0.75296250  0.49311082  0.15214158     0.86900
C831        C  0.80278778  0.47502092  0.24717734     0.86900
C832        C  0.70663936  0.01323163  0.25695624     0.87100
O833        O  0.71759156  0.46611004  0.99775323    -0.75200
O834        O  0.74855565  0.03994719  0.50304529    -0.75200
O835        O  0.73480881  0.00272084  0.43065619    -0.75300
O836        O  0.73366392  0.00323603  0.07718781    -0.75300
O837        O  0.77424140  0.48472209  0.07235149    -0.75300
O838        O  0.77637377  0.48689816  0.42644855    -0.75200
O839        O  0.79046478  0.02376262  0.00345201    -0.75200
O840        O  0.76180342  0.45053221  0.49913773    -0.75300
Ni841      Ni  0.73313200  0.00380488  0.50384190     1.25400
Ni842      Ni  0.77737548  0.48656876  0.49978149     1.25400
C843        C  0.73581012  0.44649205  0.49849073     0.87000
C844        C  0.77453546  0.04407833  0.50192832     0.86900
C845        C  0.75493846  0.49461057  0.40219824     0.86900
C846        C  0.75289043  0.49306544  0.09642783     0.87100
C847        C  0.55978145  0.08353298  0.25775534     0.79400
N848        N  0.54022354  0.06374257  0.25700569    -0.78900
C849        C  0.54718686  0.03688161  0.25501555     0.81900
N850        N  0.57407220  0.02975754  0.25460734    -0.78800
C851        C  0.59392175  0.04930336  0.25468432     0.82000
N852        N  0.58672172  0.07625300  0.25625739    -0.80500
O853        O  0.98256908  0.23741570  0.17830918    -0.75200
O854        O  0.98317093  0.23622046  0.32484008    -0.75200
O855        O  0.96961582  0.27375756  0.25323722    -0.75300
O856        O  0.99620260  0.20000742  0.25010701    -0.75300
O857        O  0.53931513  0.21539476  0.24994156    -0.75300
O858        O  0.51275282  0.28907695  0.25280089    -0.75200
O859        O  0.52636888  0.25167766  0.32444054    -0.75200
O860        O  0.52576038  0.25273328  0.17799370    -0.75300
Ni861      Ni  0.98133149  0.23629205  0.25161507     1.25400
Ni862      Ni  0.52758310  0.25278594  0.25126842     1.25400
C863        C  0.50408129  0.24513524  0.15428095     0.87000
C864        C  0.50490275  0.24379263  0.34853520     0.86900
C865        C  0.98685618  0.29358415  0.25393443     0.86900
C866        C  0.52209075  0.19556735  0.24935443     0.87100
O867        O  0.97709399  0.20925658  0.50253374    -0.75200
O868        O  0.54760128  0.23737171  0.99860568    -0.75200
O869        O  0.51150122  0.22383770  0.07397311    -0.75300
O870        O  0.51319842  0.22221609  0.42783405    -0.75300
O871        O  0.99768032  0.26532228  0.42817061    -0.75300
O872        O  0.99591593  0.26701136  0.07511214    -0.75200
O873        O  0.53560291  0.27894638  0.49934103    -0.75200
O874        O  0.95822035  0.25358552  0.00351974    -0.75300
Ni875      Ni  0.51124856  0.22236572  0.00057321     1.25400
Ni876      Ni  0.99457227  0.26860762  0.00191657     1.25400
C877        C  0.95388042  0.22765614  0.00286531     0.87000
C878        C  0.55193658  0.26330367  0.99821443     0.86900
C879        C  0.50386673  0.24532438  0.09848629     0.86900
C880        C  0.50519773  0.24372810  0.40418279     0.87100
C881        C  0.55121742  0.11257264  0.25590420    -0.06900
C882        C  0.52795610  0.11905893  0.22664301    -0.18000
C883        C  0.51856590  0.14595711  0.22231345     0.10300
C884        C  0.53236393  0.16715592  0.24869664    -0.06800
C885        C  0.55596900  0.16087804  0.27715324    -0.18100
C886        C  0.56534895  0.13385654  0.28157429     0.10300
S887        S  0.48967627  0.15186104  0.18064785    -0.33000
S888        S  0.59428294  0.12787761  0.32296325    -0.33000
H889        H  0.58373179  0.10351909  0.34403845     0.28300
H890        H  0.49982915  0.17667566  0.16073966     0.28300
H891        H  0.51728433  0.10309461  0.20574850     0.18900
H892        H  0.56656976  0.17700751  0.29788969     0.18900
C893        C  0.67811058  0.02329248  0.25731505    -0.06900
C894        C  0.65930873  0.01025512  0.22482488    -0.18000
C895        C  0.63214232  0.01909639  0.22157191     0.10300
C896        C  0.62306522  0.04112096  0.25266276    -0.06800
C897        C  0.64193889  0.05446111  0.28478681    -0.18100
C898        C  0.66924261  0.04558469  0.28794436     0.10300
S899        S  0.61058394  0.00216023  0.17513182    -0.33000
S900        S  0.69112091  0.06231135  0.33407349    -0.33000
H901        H  0.70518747  0.03833490  0.34845811     0.28300
H902        H  0.59623833  0.02602208  0.16100208     0.28300
H903        H  0.66605079  0.99343710  0.20057047     0.18900
H904        H  0.63509209  0.07115840  0.30922736     0.18900
C905        C  0.72555803  0.41806576  0.49415853    -0.06900
C906        C  0.73947812  0.40031934  0.46069311    -0.18000
C907        C  0.73104829  0.37320587  0.45384944     0.10300
C908        C  0.70881961  0.36286961  0.48287230    -0.06800
C909        C  0.69550361  0.37928204  0.01993552    -0.18100
C910        C  0.70395271  0.40660682  0.02559171     0.10300
S911        S  0.74877598  0.35340079  0.40556264    -0.33000
S912        S  0.69126542  0.42564693  0.07984913    -0.33000
H913        H  0.67917872  0.44616827  0.04965686     0.28300
H914        H  0.72525202  0.33926974  0.38873431     0.28300
H915        H  0.75667822  0.40788832  0.43843163     0.18900
H916        H  0.68133241  0.37060626  0.04752178     0.18900
C917        C  0.63844328  0.29021458  0.47959983    -0.06900
C918        C  0.61849616  0.30273722  0.01737449    -0.18000
C919        C  0.59120420  0.29443558  0.02405739     0.10300
C920        C  0.58033880  0.27341437  0.99283064    -0.06800
C921        C  0.60065767  0.26051250  0.45446253    -0.18100
C922        C  0.62752412  0.26983860  0.44681827     0.10300
S923        S  0.57185338  0.30974207  0.07546636    -0.33000
S924        S  0.64621677  0.25590458  0.39307675    -0.32200
H925        H  0.66068387  0.28018768  0.38216705     0.28300
H926        H  0.55316199  0.32244092  0.04210334     0.28300
H927        H  0.62695059  0.31819874  0.04273468     0.18900
H928        H  0.59245788  0.24484409  0.42923630     0.18900
C929        C  0.98257873  0.47463902  0.26666158    -0.06900
C930        C  0.97839144  0.49876900  0.23861042    -0.18000
C931        C  0.50086673  0.01916773  0.22617658     0.10300
C932        C  0.52575668  0.01553025  0.25310913    -0.06800
C933        C  0.53008479  0.99104174  0.28004890    -0.18100
C934        C  0.00737809  0.47135307  0.29408610     0.10300
S935        S  0.49393079  0.04821164  0.18563585    -0.33000
S936        S  0.01421005  0.44239197  0.33492471    -0.33000
H937        H  0.98696985  0.43978512  0.35228159     0.28300
H938        H  0.52082333  0.04991789  0.16611165     0.28300
H939        H  0.95977196  0.50135983  0.21658367     0.18900
H940        H  0.54895712  0.98813732  0.30126702     0.18900
C941        C  0.83128106  0.46455588  0.24555120    -0.06900
C942        C  0.85113190  0.48028582  0.21996271    -0.18000
C943        C  0.87845947  0.47176878  0.21697404     0.10300
C944        C  0.88663367  0.44734834  0.24173347    -0.06800
C945        C  0.86663666  0.43094235  0.26528092    -0.18100
C946        C  0.83919488  0.43930945  0.26784992     0.10300
S947        S  0.90145232  0.49241650  0.17897367    -0.33000
S948        S  0.81594706  0.41764262  0.30316381    -0.33000
H949        H  0.80369113  0.43947667  0.33021467     0.28300
H950        H  0.91733961  0.47020087  0.16123290     0.28300
H951        H  0.84522851  0.49916220  0.20117581     0.18900
H952        H  0.87264410  0.41214221  0.28421295     0.18900
C953        C  0.95922650  0.37720963  0.24957167    -0.06900
C954        C  0.94377794  0.35763027  0.27633476    -0.18000
C955        C  0.95260227  0.33038447  0.27987147     0.10300
C956        C  0.97699084  0.32220493  0.25457096    -0.06800
C957        C  0.99226779  0.34180832  0.22752114    -0.18100
C958        C  0.98358346  0.36902067  0.22430992     0.10300
S959        S  0.93284488  0.30772233  0.32005609    -0.33000
S960        S  0.00392639  0.39184737  0.18540127    -0.33000
H961        H  0.98141965  0.40669391  0.16625844     0.28300
H962        H  0.95585572  0.29448639  0.34117303     0.28300
H963        H  0.92534611  0.36386016  0.29654955     0.18900
H964        H  0.01079008  0.33573628  0.20742209     0.18900
C965        C  0.77655041  0.22535515  0.48835554    -0.06900
C966        C  0.75991075  0.22610992  0.44459911    -0.18000
C967        C  0.74000863  0.24658714  0.43845929     0.10300
C968        C  0.73628303  0.26640036  0.47739607    -0.06800
C969        C  0.75101486  0.26786757  0.02005657    -0.18100
C970        C  0.77060321  0.24750154  0.02902925     0.10300
S971        S  0.72092784  0.24702276  0.37943099    -0.33000
S972        S  0.79024132  0.25006591  0.08713544    -0.33000
H973        H  0.79171827  0.22162126  0.09574391     0.28300
H974        H  0.71680193  0.27557924  0.37823494     0.28300
H975        H  0.76286731  0.21099050  0.41449711     0.18900
H976        H  0.74905545  0.28469906  0.04713633     0.18900
C977        C  0.92536578  0.21752202  0.00411817    -0.06900
C978        C  0.90744209  0.22849596  0.04092062    -0.18000
C979        C  0.88031036  0.21936339  0.04488468     0.10300
C980        C  0.87036759  0.19951589  0.01005238    -0.06800
C981        C  0.89242963  0.18598168  0.47259659    -0.18100
C982        C  0.91981775  0.19467140  0.47053596     0.10300
S983        S  0.86001523  0.23269401  0.09701078    -0.33000
S984        S  0.94191090  0.17847140  0.42394361    -0.33000
H985        H  0.95560013  0.20274185  0.40998204     0.28300
H986        H  0.84431537  0.20875949  0.10394246     0.28300
H987        H  0.91487082  0.24378210  0.06775126     0.18900
H988        H  0.88563015  0.16989025  0.44685903     0.18900
C989        C  0.80134411  0.12815310  0.49879520    -0.06900
C990        C  0.81492447  0.10855884  0.46845872    -0.18000
C991        C  0.80692571  0.08092742  0.46904706     0.10300
C992        C  0.78478980  0.07260106  0.50050120    -0.06800
C993        C  0.76829164  0.09161440  0.03226892    -0.18100
C994        C  0.77614040  0.11914684  0.03450823     0.10300
S995        S  0.82402678  0.05774130  0.42572658    -0.33000
S996        S  0.75676680  0.14128546  0.07665915    -0.33000
H997        H  0.77959486  0.15656412  0.09331843     0.28300
H998        H  0.83593817  0.04252179  0.46558390     0.28300
H999        H  0.83148388  0.11490836  0.44340166     0.18900
H1000       H  0.75062980  0.08500473  0.05431179     0.18900
C1001       C  0.84416013  0.19110409  0.50131058     0.79400
N1002       N  0.82460626  0.21090474  0.49758692    -0.78900
C1003       C  0.79453190  0.20409317  0.00015767     0.81900
N1004       N  0.78751178  0.17716841  0.99943791    -0.78800
C1005       C  0.80702022  0.15741735  0.00394037     0.82000
N1006       N  0.83667981  0.16422750  0.49991188    -0.80500
C1007       C  0.91507792  0.44077841  0.74407815     0.79400
N1008       N  0.92272560  0.41399261  0.74139405    -0.78900
C1009       C  0.94968326  0.40701356  0.74468116     0.81900
N1010       N  0.96878748  0.42687328  0.75202010    -0.78800
C1011       C  0.96132813  0.45356639  0.75597739     0.82000
N1012       N  0.93443903  0.46038358  0.75169412    -0.80500
C1013       C  0.69813582  0.33358841  0.97822973     0.79400
N1014       N  0.67131661  0.32601279  0.97915104    -0.78900
C1015       C  0.66431663  0.29904381  0.97654090     0.81900
N1016       N  0.68435000  0.27961665  0.97451447    -0.78800
C1017       C  0.71122075  0.28707261  0.97456892     0.82000
N1018       N  0.71799252  0.31405840  0.97670153    -0.80500
O1019       O  0.74569344  0.47381522  0.82251852    -0.75200
O1020       O  0.74524521  0.47403584  0.67596518    -0.75200
O1021       O  0.78207122  0.45993362  0.74831591    -0.75300
O1022       O  0.70880150  0.48775222  0.75004801    -0.75300
O1023       O  0.72668443  0.02970224  0.75640528    -0.75300
O1024       O  0.80014654  0.00195724  0.75320774    -0.75200
O1025       O  0.76318385  0.01660937  0.68147596    -0.75200
O1026       O  0.76390414  0.01528862  0.82785545    -0.75300
Ni1027     Ni  0.74486018  0.47236384  0.74921682     1.25400
Ni1028     Ni  0.76405028  0.01741847  0.75476373     1.25400
C1029       C  0.75380905  0.49525223  0.84654721     0.87000
C1030       C  0.75334123  0.49551922  0.65228832     0.86900
C1031       C  0.80225456  0.47672960  0.74827632     0.86900
C1032       C  0.70659617  0.01274448  0.75666321     0.87100
O1033       O  0.71895963  0.46665731  0.49902939    -0.75200
O1034       O  0.74741347  0.03927311  0.00295088    -0.75200
O1035       O  0.73406129  0.00163214  0.93069160    -0.75300
O1036       O  0.73440047  0.00367477  0.57704000    -0.75300
O1037       O  0.77529666  0.48724265  0.57305073    -0.75300
O1038       O  0.77517693  0.48689283  0.92594786    -0.75200
O1039       O  0.79145821  0.02398244  0.50296343    -0.75200
O1040       O  0.76023520  0.44938534  0.99632098    -0.75300
Ni1041     Ni  0.73235768  0.00300434  0.00396358     1.25400
Ni1042     Ni  0.77623708  0.48525587  0.99910246     1.25400
C1043       C  0.73418820  0.44575480  0.99600648     0.87000
C1044       C  0.77334827  0.04370265  0.00278392     0.86900
C1045       C  0.75380975  0.49522811  0.90224809     0.86900
C1046       C  0.75371924  0.49547864  0.59655381     0.87100
C1047       C  0.56041231  0.08469178  0.76200689     0.79400
N1048       N  0.54059641  0.06512696  0.76231736    -0.78900
C1049       C  0.54722650  0.03816275  0.76083133     0.81900
N1050       N  0.57401377  0.03071835  0.75969800    -0.78800
C1051       C  0.59410699  0.04999588  0.75855835     0.82000
N1052       N  0.58725301  0.07705670  0.75977630    -0.80500
O1053       O  0.98453856  0.23721655  0.67697101    -0.75200
O1054       O  0.98179233  0.23808900  0.82337772    -0.75200
O1055       O  0.96945425  0.27444736  0.74884900    -0.75300
O1056       O  0.99700158  0.20107042  0.75140061    -0.75300
O1057       O  0.53988393  0.21694614  0.75339796    -0.75300
O1058       O  0.51226297  0.29036602  0.75130472    -0.75200
O1059       O  0.52469804  0.25393049  0.82564512    -0.75200
O1060       O  0.52744070  0.25331198  0.67908824    -0.75300
Ni1061     Ni  0.98166200  0.23714196  0.75008142     1.25400
Ni1062     Ni  0.52760547  0.25423869  0.75248354     1.25400
C1063       C  0.50641383  0.24502620  0.65414577     0.87000
C1064       C  0.50280186  0.24602036  0.84840659     0.86900
C1065       C  0.98639403  0.29452337  0.74993716     0.86900
C1066       C  0.52291500  0.19689641  0.75197508     0.87100
O1067       O  0.97382247  0.21052048  0.00178132    -0.75200
O1068       O  0.55106944  0.23585170  0.49872086    -0.75200
O1069       O  0.51478863  0.22312444  0.57453456    -0.75300
O1070       O  0.50995113  0.22399588  0.92746384    -0.75300
O1071       O  0.99441237  0.26717637  0.92850958    -0.75300
O1072       O  0.99934185  0.26623165  0.57437315    -0.75200
O1073       O  0.53200672  0.28040983  0.00025624    -0.75200
O1074       O  0.96162053  0.25236657  0.50311384    -0.75300
Ni1075     Ni  0.51461671  0.22107307  0.50106449     1.25400
Ni1076     Ni  0.99801695  0.26724018  0.50129859     1.25400
C1077       C  0.95720330  0.22644391  0.50264915     0.87000
C1078       C  0.55548230  0.26176057  0.49779995     0.86900
C1079       C  0.50710021  0.24482689  0.59838466     0.86900
C1080       C  0.50216233  0.24566856  0.90413489     0.87100
C1081       C  0.55216301  0.11384104  0.75944336    -0.06900
C1082       C  0.52894459  0.12029324  0.73008557    -0.18000
C1083       C  0.51969138  0.14720868  0.72522846     0.10300
C1084       C  0.53341913  0.16850373  0.75153939    -0.06800
C1085       C  0.55711911  0.16229387  0.77981690    -0.18100
C1086       C  0.56649201  0.13523876  0.78445525     0.10300
S1087       S  0.49110489  0.15298858  0.68278162    -0.33000
S1088       S  0.59572470  0.12937729  0.82515899    -0.33000
H1089       H  0.58530948  0.10512463  0.84686625     0.28300
H1090       H  0.50166624  0.17751291  0.66235352     0.28300
H1091       H  0.51821094  0.10426801  0.70946794     0.18900
H1092       H  0.56780753  0.17848851  0.80019674     0.18900
C1093       C  0.67810009  0.02301417  0.75793494    -0.06900
C1094       C  0.65862794  0.00966619  0.72727570    -0.18000
C1095       C  0.63149742  0.01878312  0.72502453     0.10300
C1096       C  0.62313052  0.04138246  0.75541507    -0.06800
C1097       C  0.64265489  0.05497955  0.78572413    -0.18100
C1098       C  0.66990922  0.04587223  0.78780013     0.10300
S1099       S  0.60906833  0.00148035  0.68052217    -0.33000
S1100       S  0.69265379  0.06315936  0.83169027    -0.33000
H1101       H  0.70617263  0.03915538  0.84766034     0.28300
H1102       H  0.59495907  0.02536424  0.66570063     0.28300
H1103       H  0.66479788  0.99241169  0.70358659     0.18900
H1104       H  0.63638885  0.07212256  0.80960676     0.18900
C1105       C  0.72340366  0.41763253  0.99119244    -0.06900
C1106       C  0.73344766  0.40122780  0.95114372    -0.18000
C1107       C  0.72450433  0.37420014  0.94466966     0.10300
C1108       C  0.70582181  0.36281150  0.98012842    -0.06800
C1109       C  0.69464195  0.38065447  0.51612132    -0.18100
C1110       C  0.70261385  0.40815965  0.52167225     0.10300
S1111       S  0.73703312  0.35563489  0.88952021    -0.33000
S1112       S  0.68422542  0.42903294  0.56716806    -0.33000
H1113       H  0.67365894  0.44644472  0.52914913     0.28300
H1114       H  0.71303855  0.34007495  0.88201835     0.28300
H1115       H  0.74803367  0.40972673  0.92409384     0.18900
H1116       H  0.67764717  0.37294978  0.53872180     0.18900
C1117       C  0.63516242  0.29085194  0.97936983    -0.06900
C1118       C  0.62164918  0.30155805  0.51794323    -0.18000
C1119       C  0.59453269  0.29274918  0.52458382     0.10300
C1120       C  0.58390470  0.27185784  0.49281773    -0.06800
C1121       C  0.59692945  0.26169033  0.95464489    -0.18100
C1122       C  0.62389759  0.27059037  0.94681714     0.10300
S1123       S  0.57508245  0.30719298  0.57671451    -0.33000
S1124       S  0.64221591  0.25633689  0.89297076    -0.32200
H1125       H  0.65699951  0.28039459  0.88181336     0.28300
H1126       H  0.55651842  0.32048947  0.54392047     0.28300
H1127       H  0.62989472  0.31694877  0.54369094     0.18900
H1128       H  0.58852420  0.24601470  0.92966631     0.18900
C1129       C  0.98237975  0.47529851  0.76028068    -0.06900
C1130       C  0.97756968  0.50017267  0.73495578    -0.18000
C1131       C  0.50073788  0.02046944  0.73275340     0.10300
C1132       C  0.52557849  0.01699768  0.75990057    -0.06800
C1133       C  0.52980259  0.99272713  0.78755011    -0.18100
C1134       C  0.00775529  0.47137062  0.78551667     0.10300
S1135       S  0.49411221  0.04906000  0.69093980    -0.33000
S1136       S  0.01545601  0.44147995  0.82336596    -0.33000
H1137       H  0.98872820  0.43883429  0.84330361     0.28300
H1138       H  0.52107936  0.05040404  0.67166860     0.28300
H1139       H  0.95845182  0.50334212  0.71472681     0.18900
H1140       H  0.54867757  0.98992428  0.80881832     0.18900
C1141       C  0.83071206  0.46622581  0.74642054    -0.06900
C1142       C  0.85029418  0.48165228  0.71954005    -0.18000
C1143       C  0.87749167  0.47291347  0.71532982     0.10300
C1144       C  0.88588489  0.44865233  0.74032463    -0.06800
C1145       C  0.86617230  0.43262242  0.76559687    -0.18100
C1146       C  0.83878746  0.44115649  0.76918038     0.10300
S1147       S  0.89998095  0.49295742  0.67521778    -0.33000
S1148       S  0.81578505  0.41987949  0.80586666    -0.33000
H1149       H  0.80315941  0.44198210  0.83151188     0.28300
H1150       H  0.91530106  0.47041485  0.65717689     0.28300
H1151       H  0.84421920  0.50037563  0.70041036     0.18900
H1152       H  0.87237017  0.41394867  0.78474597     0.18900
C1153       C  0.95823492  0.37800303  0.74213208    -0.06900
C1154       C  0.94232074  0.35835202  0.76776696    -0.18000
C1155       C  0.95112567  0.33112604  0.77190665     0.10300
C1156       C  0.97611385  0.32301950  0.74862953    -0.06800
C1157       C  0.99170706  0.34260074  0.72213801    -0.18100
C1158       C  0.98294798  0.36977553  0.71807660     0.10300
S1159       S  0.93048160  0.30841417  0.81040000    -0.33000
S1160       S  0.00372701  0.39249743  0.67975583    -0.33000
H1161       H  0.98139778  0.40719423  0.65950967     0.28300
H1162       H  0.95300423  0.29573975  0.83433230     0.28300
H1163       H  0.92352982  0.36451624  0.78686189     0.18900
H1164       H  0.01061206  0.33655108  0.70329976     0.18900
C1165       C  0.77308969  0.22526111  0.99457855    -0.06900
C1166       C  0.75500185  0.22345113  0.95294322    -0.18000
C1167       C  0.73512912  0.24369308  0.94430422     0.10300
C1168       C  0.73293306  0.26610419  0.97850350    -0.06800
C1169       C  0.75307288  0.26577094  0.52079460    -0.18100
C1170       C  0.77273493  0.24523100  0.52715093     0.10300
S1171       S  0.71417521  0.24034955  0.88789449    -0.33000
S1172       S  0.79074238  0.24445199  0.58720952    -0.33000
H1173       H  0.79287903  0.21570793  0.58972571     0.28300
H1174       H  0.71074570  0.26866654  0.87990770     0.28300
H1175       H  0.75684169  0.20647545  0.92616108     0.18900
H1176       H  0.75002544  0.28077239  0.55108709     0.18900
C1177       C  0.92865553  0.21637942  0.50254996    -0.06900
C1178       C  0.90980901  0.22874569  0.53599291    -0.18000
C1179       C  0.88256857  0.21987363  0.53841622     0.10300
C1180       C  0.87342634  0.19880888  0.50527558    -0.06800
C1181       C  0.88846038  0.18804851  0.97398238    -0.18100
C1182       C  0.91573465  0.19695791  0.97037471     0.10300
S1183       S  0.86110090  0.23513748  0.58684353    -0.33000
S1184       S  0.93664723  0.18248234  0.92004832    -0.33000
H1185       H  0.95069559  0.20695708  0.90884795     0.28300
H1186       H  0.84615095  0.21103030  0.59681719     0.28300
H1187       H  0.91656187  0.24496381  0.56151271     0.18900
H1188       H  0.88099177  0.17285188  0.94702550     0.18900
C1189       C  0.79901672  0.12820026  0.00576826    -0.06900
C1190       C  0.81416765  0.10899184  0.97717267    -0.18000
C1191       C  0.80663593  0.08124771  0.97592486     0.10300
C1192       C  0.78325197  0.07238739  0.00346295    -0.06800
C1193       C  0.77128161  0.09225165  0.53069716    -0.18100
C1194       C  0.77955046  0.11968548  0.53088449     0.10300
S1195       S  0.82625168  0.05861439  0.93541306    -0.33000
S1196       S  0.76213630  0.14254054  0.57464813    -0.33000
H1197       H  0.78568284  0.15777878  0.58750340     0.28300
H1198       H  0.83673962  0.04372933  0.97707945     0.28300
H1199       H  0.83165907  0.11572886  0.95481102     0.18900
H1200       H  0.75447324  0.08605640  0.55532662     0.18900
C1201       C  0.84412937  0.68972108  0.01558575     0.79400
N1202       N  0.82477481  0.70981428  0.01288386    -0.78900
C1203       C  0.79910614  0.70503838  0.50189024     0.81900
N1204       N  0.79120808  0.67839426  0.50039112    -0.78800
C1205       C  0.80972960  0.65786243  0.50643028     0.82000
N1206       N  0.83628386  0.66293841  0.01481374    -0.80500
C1207       C  0.91736038  0.94059851  0.24133794     0.79400
N1208       N  0.92470178  0.91368759  0.23853505    -0.78900
C1209       C  0.95164998  0.90640772  0.24064222     0.81900
N1210       N  0.97105569  0.92607451  0.24688735    -0.78800
C1211       C  0.96389791  0.95283118  0.25098935     0.82000
N1212       N  0.93705564  0.95993828  0.24806180    -0.80500
C1213       C  0.70192694  0.83419081  0.48653278     0.79400
N1214       N  0.67512348  0.82648281  0.48659045    -0.78900
C1215       C  0.66829927  0.79947939  0.48283772     0.81900
N1216       N  0.68847095  0.78018602  0.48023660    -0.78800
C1217       C  0.71529250  0.78784064  0.48120717     0.82000
N1218       N  0.72183627  0.81478183  0.48477150    -0.80500
O1219       O  0.74823742  0.97316938  0.32710652    -0.75200
O1220       O  0.74696609  0.97397917  0.18065759    -0.75200
O1221       O  0.78429645  0.95982001  0.25196694    -0.75300
O1222       O  0.71087001  0.98729956  0.25555224    -0.75300
O1223       O  0.72501084  0.52849684  0.25064220    -0.75300
O1224       O  0.79863833  0.50101091  0.24715682    -0.75200
O1225       O  0.76103181  0.51467733  0.17571292    -0.75200
O1226       O  0.76276318  0.51526203  0.32197394    -0.75300
Ni1227     Ni  0.74700670  0.97204429  0.25383670     1.25400
Ni1228     Ni  0.76244206  0.51639707  0.24880635     1.25400
C1229       C  0.75635417  0.99457057  0.35121049     0.87000
C1230       C  0.75487818  0.99554298  0.15704627     0.86900
C1231       C  0.80440838  0.97670861  0.25174193     0.86900
C1232       C  0.70501095  0.51143876  0.25200929     0.87100
O1233       O  0.72040995  0.96559472  0.00518393    -0.75200
O1234       O  0.74721216  0.54005278  0.49914024    -0.75200
O1235       O  0.73343647  0.50297760  0.42576678    -0.75300
O1236       O  0.73170542  0.50186412  0.07274920    -0.75300
O1237       O  0.77671818  0.98743937  0.07764099    -0.75300
O1238       O  0.77779782  0.98671523  0.43076303    -0.75200
O1239       O  0.78918969  0.52241622  0.00163022    -0.75200
O1240       O  0.76376322  0.95049877  0.50417709    -0.75300
Ni1241     Ni  0.73150395  0.50395342  0.49902145     1.25400
Ni1242     Ni  0.77914662  0.98662975  0.50398132     1.25400
C1243       C  0.73777958  0.94642417  0.50397939     0.87000
C1244       C  0.77323025  0.54417528  0.49997842     0.86900
C1245       C  0.75631696  0.99458487  0.40685656     0.86900
C1246       C  0.75511494  0.99549193  0.10130637     0.87100
C1247       C  0.55903074  0.58285438  0.26047460     0.79400
N1248       N  0.53902018  0.56352909  0.26263037    -0.78900
C1249       C  0.54537904  0.53647173  0.26163924     0.81900
N1250       N  0.57206718  0.52872145  0.25905609    -0.78800
C1251       C  0.59229363  0.54780107  0.25595034     0.82000
N1252       N  0.58569738  0.57490592  0.25674559    -0.80500
O1253       O  0.98488208  0.73719902  0.17942050    -0.75200
O1254       O  0.98428005  0.73724367  0.32596858    -0.75200
O1255       O  0.97129268  0.77417452  0.25250764    -0.75300
O1256       O  0.99779125  0.70042225  0.25254711    -0.75300
O1257       O  0.54104951  0.71554687  0.25309545    -0.75300
O1258       O  0.51447131  0.78950882  0.25255861    -0.75200
O1259       O  0.52751517  0.75261933  0.32625257    -0.75200
O1260       O  0.52824184  0.75234904  0.17975785    -0.75300
Ni1261     Ni  0.98302151  0.73671864  0.25265194     1.25400
Ni1262     Ni  0.52936561  0.75308546  0.25301550     1.25400
C1263       C  0.50671490  0.74466902  0.15569661     0.87000
C1264       C  0.50590467  0.74478932  0.34999605     0.86900
C1265       C  0.98846990  0.79404885  0.25226607     0.86900
C1266       C  0.52373402  0.69576959  0.25204268     0.87100
O1267       O  0.97811364  0.70946334  0.50425791    -0.75200
O1268       O  0.55033467  0.73775594  0.99983624    -0.75200
O1269       O  0.51475831  0.72348983  0.07545536    -0.75300
O1270       O  0.51406235  0.72308489  0.42933052    -0.75300
O1271       O  0.99811336  0.76608639  0.42997595    -0.75300
O1272       O  0.99824225  0.76627120  0.07674474    -0.75200
O1273       O  0.53579475  0.77991291  0.50157792    -0.75200
O1274       O  0.96050682  0.75197126  0.00615752    -0.75300
Ni1275     Ni  0.51427008  0.72202998  0.00205002     1.25400
Ni1276     Ni  0.99649735  0.76778236  0.00372539     1.25400
C1277       C  0.95670688  0.72595248  0.00576385     0.87000
C1278       C  0.55411951  0.76376600  0.99996970     0.86900
C1279       C  0.50674052  0.74483409  0.09999028     0.86900
C1280       C  0.50594091  0.74458864  0.40574730     0.87100
C1281       C  0.55124339  0.61211027  0.25822020    -0.06900
C1282       C  0.52794141  0.61905450  0.22953919    -0.18000
C1283       C  0.51928971  0.64619926  0.22491502     0.10300
C1284       C  0.53369645  0.66717814  0.25091006    -0.06800
C1285       C  0.55746132  0.66042591  0.27850934    -0.18100
C1286       C  0.56625980  0.63317531  0.28281762     0.10300
S1287       S  0.49056789  0.65268115  0.18315405    -0.33000
S1288       S  0.59571179  0.62665297  0.32263402    -0.33000
H1289       H  0.58505172  0.60253132  0.34443969     0.28300
H1290       H  0.50142255  0.67712072  0.16290298     0.28300
H1291       H  0.51669726  0.60323581  0.20926867     0.18900
H1292       H  0.56865521  0.67635935  0.29866174     0.18900
C1293       C  0.67645993  0.52149091  0.25345399    -0.06900
C1294       C  0.65668711  0.50706968  0.22518141    -0.18000
C1295       C  0.62939028  0.51573762  0.22366093     0.10300
C1296       C  0.62125703  0.53910185  0.25218726    -0.06800
C1297       C  0.64109273  0.55374546  0.28000404    -0.18100
C1298       C  0.66844045  0.54501466  0.28155294     0.10300
S1299       S  0.60643543  0.49677502  0.18257583    -0.33000
S1300       S  0.69152414  0.56365177  0.32281897    -0.33000
H1301       H  0.70508641  0.54014593  0.34107255     0.28300
H1302       H  0.59192436  0.52000695  0.16568504     0.28300
H1303       H  0.66269941  0.48923029  0.20290078     0.18900
H1304       H  0.63502546  0.57147728  0.30252969     0.18900
C1305       C  0.72746970  0.91810364  0.50008115    -0.06900
C1306       C  0.73924671  0.90103091  0.46279550    -0.18000
C1307       C  0.73028331  0.87408286  0.45601087     0.10300
C1308       C  0.70970475  0.86338866  0.48853181    -0.06800
C1309       C  0.69802544  0.87983820  0.03103473    -0.18100
C1310       C  0.70662973  0.90717577  0.03555622     0.10300
S1311       S  0.74526316  0.85480999  0.40388101    -0.33000
S1312       S  0.69228796  0.92761822  0.08650577    -0.33000
H1313       H  0.67970960  0.94620661  0.05283688     0.28300
H1314       H  0.72123319  0.84012844  0.39190540     0.28300
H1315       H  0.75512369  0.90900088  0.43777938     0.18900
H1316       H  0.68268593  0.87201115  0.05730649     0.18900
C1317       C  0.63916110  0.79107961  0.48461942    -0.06900
C1318       C  0.62116533  0.79947654  0.03219563    -0.18000
C1319       C  0.59368661  0.79121212  0.03572482     0.10300
C1320       C  0.58234500  0.77447620  0.99699000    -0.06800
C1321       C  0.60096247  0.76272559  0.45641546    -0.18100
C1322       C  0.62796951  0.77188207  0.44978780     0.10300
S1323       S  0.57472994  0.80061886  0.09235064    -0.33000
S1324       S  0.64644363  0.75940790  0.39460435    -0.32200
H1325       H  0.66150611  0.78365466  0.38660146     0.28300
H1326       H  0.55344249  0.81337967  0.06509187     0.28300
H1327       H  0.63005370  0.81151047  0.06292396     0.18900
H1328       H  0.59261037  0.74784175  0.42975151     0.18900
C1329       C  0.98511722  0.97432502  0.25484283    -0.06900
C1330       C  0.98080801  0.99884611  0.22811215    -0.18000
C1331       C  0.49860580  0.51891014  0.23548426     0.10300
C1332       C  0.52350853  0.51555063  0.26242643    -0.06800
C1333       C  0.52760645  0.49162786  0.29120048    -0.18100
C1334       C  0.01002330  0.97058912  0.28166066     0.10300
S1335       S  0.49203953  0.54711673  0.19273282    -0.33000
S1336       S  0.01701255  0.94098662  0.32075380    -0.33000
H1337       H  0.98995666  0.93845549  0.33913223     0.28300
H1338       H  0.51888546  0.54791267  0.17277145     0.28300
H1339       H  0.96209677  0.00173470  0.20649164     0.18900
H1340       H  0.54650739  0.48897989  0.31245137     0.18900
C1341       C  0.83296041  0.96638541  0.24886859    -0.06900
C1342       C  0.85253091  0.98281373  0.22412112    -0.18000
C1343       C  0.87970186  0.97423824  0.21839987     0.10300
C1344       C  0.88814511  0.94889452  0.23949701    -0.06800
C1345       C  0.86845923  0.93204853  0.26298240    -0.18100
C1346       C  0.84112917  0.94054073  0.26829209     0.10300
S1347       S  0.90198599  0.99612056  0.18137338    -0.33000
S1348       S  0.81835573  0.91809047  0.30295688    -0.33000
H1349       H  0.80623564  0.93931304  0.33186160     0.28300
H1350       H  0.91654475  0.97441393  0.15825619     0.28300
H1351       H  0.84646944  0.00227288  0.20771154     0.18900
H1352       H  0.87463548  0.91264857  0.27946637     0.18900
C1353       C  0.95995533  0.87728259  0.23922107    -0.06900
C1354       C  0.94467201  0.85828169  0.26770597    -0.18000
C1355       C  0.95376318  0.83125313  0.27390105     0.10300
C1356       C  0.97836247  0.82261705  0.24983774    -0.06800
C1357       C  0.99330239  0.84151364  0.22045506    -0.18100
C1358       C  0.98426857  0.86851458  0.21438292     0.10300
S1359       S  0.93404541  0.80953808  0.31591325    -0.33000
S1360       S  0.00418698  0.89032888  0.17276886    -0.33000
H1361       H  0.98152158  0.90499014  0.15376727     0.28300
H1362       H  0.95707164  0.79705599  0.33850057     0.28300
H1363       H  0.92625019  0.86489152  0.28752368     0.18900
H1364       H  0.01184313  0.83501437  0.20088714     0.18900
C1365       C  0.77827884  0.72682599  0.49640584    -0.06900
C1366       C  0.75968932  0.72515913  0.45550372    -0.18000
C1367       C  0.73950019  0.74523641  0.44831205     0.10300
C1368       C  0.73733033  0.76717820  0.48348125    -0.06800
C1369       C  0.75725703  0.76976798  0.02434806    -0.18100
C1370       C  0.77740601  0.74982873  0.03217793     0.10300
S1371       S  0.71814580  0.74242868  0.39235876    -0.33000
S1372       S  0.80218421  0.75671352  0.08138920    -0.33000
H1373       H  0.80156313  0.72984861  0.10095648     0.28300
H1374       H  0.71491558  0.77085096  0.38529064     0.28300
H1375       H  0.76126247  0.70833877  0.42832474     0.18900
H1376       H  0.75825157  0.78866787  0.04635240     0.18900
C1377       C  0.92842302  0.71528221  0.00856679    -0.06900
C1378       C  0.91106413  0.72581725  0.04667844    -0.18000
C1379       C  0.88410265  0.71644782  0.05201523     0.10300
C1380       C  0.87357247  0.69703271  0.01693418    -0.06800
C1381       C  0.89281489  0.68520640  0.48095708    -0.18100
C1382       C  0.92012725  0.69400713  0.47655559     0.10300
S1383       S  0.86498840  0.72871646  0.10648367    -0.33000
S1384       S  0.94128475  0.67756126  0.42875986    -0.33000
H1385       H  0.95503235  0.70162837  0.41379908     0.28300
H1386       H  0.84873591  0.70505239  0.11200604     0.28300
H1387       H  0.91884713  0.74092854  0.07351043     0.18900
H1388       H  0.88542429  0.66914758  0.45572499     0.18900
C1389       C  0.80047293  0.62875659  0.50695790    -0.06900
C1390       C  0.81866008  0.60821699  0.49014253    -0.18000
C1391       C  0.81079968  0.58055509  0.48820574     0.10300
C1392       C  0.78369152  0.57290578  0.50205683    -0.06800
C1393       C  0.76663302  0.59130078  0.02921257    -0.18100
C1394       C  0.77500019  0.61860883  0.03390540     0.10300
S1395       S  0.83614607  0.55642169  0.46591892    -0.33000
S1396       S  0.75272938  0.64113585  0.06989452    -0.33000
H1397       H  0.77429028  0.65465551  0.09539884     0.28300
H1398       H  0.83789820  0.54339361  0.51382093     0.28300
H1399       H  0.83920228  0.61372190  0.47796732     0.18900
H1400       H  0.74698011  0.58541266  0.04528310     0.18900
C1401       C  0.84504829  0.69095977  0.51250560     0.79400
N1402       N  0.82607442  0.71128988  0.50798087    -0.78900
C1403       C  0.79771039  0.70325569  0.00936275     0.81900
N1404       N  0.79022251  0.67645676  0.00839876    -0.78800
C1405       C  0.80921910  0.65618763  0.01222229     0.82000
N1406       N  0.83680954  0.66427427  0.51143187    -0.80500
C1407       C  0.91756416  0.94121009  0.74632699     0.79400
N1408       N  0.92526884  0.91442481  0.74422684    -0.78900
C1409       C  0.95221222  0.90749467  0.74795830     0.81900
N1410       N  0.97128796  0.92738492  0.75504733    -0.78800
C1411       C  0.96378353  0.95407666  0.75837609     0.82000
N1412       N  0.93690169  0.96085959  0.75380673    -0.80500
C1413       C  0.70118125  0.83326011  0.99272860     0.79400
N1414       N  0.67420127  0.82623494  0.99308756    -0.78900
C1415       C  0.66673701  0.79940818  0.99013434     0.81900
N1416       N  0.68636411  0.77956478  0.98816723    -0.78800
C1417       C  0.71340463  0.78644813  0.98872462     0.82000
N1418       N  0.72060048  0.81331884  0.99120011    -0.80500
O1419       O  0.74781595  0.97236879  0.82681171    -0.75200
O1420       O  0.74718382  0.97366092  0.68010890    -0.75200
O1421       O  0.78415701  0.95911977  0.75185125    -0.75300
O1422       O  0.71073432  0.98679669  0.75485055    -0.75300
O1423       O  0.72474996  0.53066971  0.75079180    -0.75300
O1424       O  0.79821287  0.50273420  0.74863894    -0.75200
O1425       O  0.76127506  0.51698282  0.67639048    -0.75200
O1426       O  0.76187544  0.51670791  0.82282426    -0.75300
Ni1427     Ni  0.74687792  0.97144984  0.75337711     1.25400
Ni1428     Ni  0.76211363  0.51831874  0.74964950     1.25400
C1429       C  0.75588053  0.99370888  0.85123121     0.87000
C1430       C  0.75532025  0.99528548  0.65688429     0.86900
C1431       C  0.80429414  0.97598343  0.75201462     0.86900
C1432       C  0.70466933  0.51369582  0.75118761     0.87100
O1433       O  0.72083910  0.96649750  0.50444863    -0.75200
O1434       O  0.74665051  0.53911068  0.00148691    -0.75200
O1435       O  0.73237629  0.50336988  0.92630199    -0.75300
O1436       O  0.73248776  0.50366477  0.57226894    -0.75300
O1437       O  0.77735187  0.98760628  0.57736202    -0.75300
O1438       O  0.77724883  0.98620256  0.93107354    -0.75200
O1439       O  0.78989683  0.52386737  0.50016939    -0.75200
O1440       O  0.76346808  0.94996935  0.00483917    -0.75300
Ni1441     Ni  0.73055959  0.50323062  0.99957149     1.25400
Ni1442     Ni  0.77852594  0.98627701  0.00434202     1.25400
C1443       C  0.73751713  0.94566215  0.00512713     0.87000
C1444       C  0.77270738  0.54288539  0.00244713     0.86900
C1445       C  0.75568866  0.99369826  0.90698501     0.86900
C1446       C  0.75573328  0.99558456  0.60110809     0.87100
C1447       C  0.55822373  0.58413240  0.75884994     0.79400
N1448       N  0.53837919  0.56463174  0.75956879    -0.78900
C1449       C  0.54494380  0.53766288  0.75726652     0.81900
N1450       N  0.57174156  0.53019093  0.75500257    -0.78800
C1451       C  0.59182559  0.54950217  0.75353220     0.82000
N1452       N  0.58498171  0.57651048  0.75548372    -0.80500
O1453       O  0.98475095  0.73816400  0.67892512    -0.75200
O1454       O  0.98277004  0.73820942  0.82551692    -0.75200
O1455       O  0.97078187  0.77522261  0.75202234    -0.75300
O1456       O  0.99666867  0.70134957  0.75242845    -0.75300
O1457       O  0.53993439  0.71629536  0.75408307    -0.75300
O1458       O  0.51398011  0.79023953  0.75359714    -0.75200
O1459       O  0.52610143  0.75321783  0.82701983    -0.75200
O1460       O  0.52802165  0.75313379  0.68060811    -0.75300
Ni1461     Ni  0.98217936  0.73771073  0.75216162     1.25400
Ni1462     Ni  0.52854437  0.75379864  0.75392130     1.25400
C1463       C  0.50673094  0.74540159  0.65587827     0.87000
C1464       C  0.50422223  0.74563606  0.85015582     0.86900
C1465       C  0.98815721  0.79490785  0.75320339     0.86900
C1466       C  0.52249908  0.69666360  0.75260261     0.87100
O1467       O  0.97698367  0.70923377  0.00396875    -0.75200
O1468       O  0.55170331  0.73698367  0.50055931    -0.75200
O1469       O  0.51548811  0.72370066  0.57615663    -0.75300
O1470       O  0.51258326  0.72371598  0.92893947    -0.75300
O1471       O  0.99585276  0.76634277  0.93045433    -0.75300
O1472       O  0.99947949  0.76664225  0.57623887    -0.75200
O1473       O  0.53384791  0.78048452  0.00150074    -0.75200
O1474       O  0.96209461  0.75236957  0.50495455    -0.75300
Ni1475     Ni  0.51542245  0.72176724  0.50263466     1.25400
Ni1476     Ni  0.99831550  0.76778511  0.50318164     1.25400
C1477       C  0.95799841  0.72637893  0.50506861     0.87000
C1478       C  0.55586949  0.76293470  0.50007800     0.86900
C1479       C  0.50738293  0.74523097  0.60010240     0.86900
C1480       C  0.50402744  0.74518095  0.90584498     0.87100
C1481       C  0.55018697  0.61326247  0.75753755    -0.06900
C1482       C  0.52725425  0.62032643  0.72795269    -0.18000
C1483       C  0.51844439  0.64742109  0.72401863     0.10300
C1484       C  0.53237201  0.66814951  0.75148352    -0.06800
C1485       C  0.55573217  0.66129128  0.78012591    -0.18100
C1486       C  0.56465785  0.63409519  0.78382664     0.10300
S1487       S  0.49022888  0.65421290  0.68123096    -0.33000
S1488       S  0.59356153  0.62730971  0.82486637    -0.33000
H1489       H  0.58288982  0.60273477  0.84481331     0.28300
H1490       H  0.50125480  0.67885951  0.66221786     0.28300
H1491       H  0.51648056  0.60467847  0.70640387     0.18900
H1492       H  0.56651737  0.67708651  0.80140835     0.18900
C1493       C  0.67615778  0.52383392  0.75197237    -0.06900
C1494       C  0.65679861  0.51006429  0.72167677    -0.18000
C1495       C  0.62948549  0.51862743  0.71984450     0.10300
C1496       C  0.62089519  0.54117098  0.75009299    -0.06800
C1497       C  0.64034489  0.55528292  0.77978635    -0.18100
C1498       C  0.66773734  0.54666748  0.78161347     0.10300
S1499       S  0.60708064  0.50062837  0.67628928    -0.33000
S1500       S  0.69032229  0.56444246  0.82511312    -0.33000
H1501       H  0.70401519  0.54065210  0.84166242     0.28300
H1502       H  0.59247415  0.52415906  0.66119693     0.28300
H1503       H  0.66315640  0.49279898  0.69817760     0.18900
H1504       H  0.63391733  0.57243263  0.80351843     0.18900
C1505       C  0.72737496  0.91721553  0.00274305    -0.06900
C1506       C  0.73886250  0.89969806  0.96584950    -0.18000
C1507       C  0.72986517  0.87264390  0.96046870     0.10300
C1508       C  0.70954833  0.86233452  0.99398689    -0.06800
C1509       C  0.69776323  0.88047875  0.52578711    -0.18100
C1510       C  0.70632787  0.90776147  0.53165533     0.10300
S1511       S  0.74432909  0.85277459  0.90864413    -0.33000
S1512       S  0.69144849  0.92768499  0.58276673    -0.33000
H1513       H  0.67941649  0.94673593  0.54930111     0.28300
H1514       H  0.72008506  0.83822132  0.89767829     0.28300
H1515       H  0.75447882  0.90740275  0.93998910     0.18900
H1516       H  0.68221581  0.87233975  0.55128820     0.18900
C1517       C  0.63746395  0.79180548  0.99017646    -0.06900
C1518       C  0.62242278  0.80166262  0.52381238    -0.18000
C1519       C  0.59511556  0.79314921  0.52935558     0.10300
C1520       C  0.58427543  0.77323583  0.49568425    -0.06800
C1521       C  0.59855496  0.76707221  0.95474125    -0.18100
C1522       C  0.62572516  0.77608887  0.95034059     0.10300
S1523       S  0.57568384  0.80665648  0.58237653    -0.33000
S1524       S  0.64385873  0.76783049  0.89208148    -0.32200
H1525       H  0.66060156  0.79134522  0.89190214     0.28300
H1526       H  0.55643769  0.81968948  0.55061305     0.28300
H1527       H  0.63083027  0.81626889  0.55092890     0.18900
H1528       H  0.58978629  0.75462342  0.92445601     0.18900
C1529       C  0.98480308  0.97578945  0.76250382    -0.06900
C1530       C  0.98056611  0.00015066  0.73518945    -0.18000
C1531       C  0.49767840  0.52057345  0.73222424     0.10300
C1532       C  0.52317940  0.51656215  0.75694329    -0.06800
C1533       C  0.52790173  0.49184959  0.78293067    -0.18100
C1534       C  0.00967818  0.97223379  0.78956054     0.10300
S1535       S  0.48992512  0.55006755  0.69336642    -0.33000
S1536       S  0.01674656  0.94278847  0.82902502    -0.33000
H1537       H  0.98967450  0.94020349  0.84728300     0.28300
H1538       H  0.51616616  0.55142001  0.67086872     0.28300
H1539       H  0.96191779  0.00288900  0.71328927     0.18900
H1540       H  0.54719311  0.48867853  0.80265665     0.18900
C1541       C  0.83284154  0.96570248  0.74940925    -0.06900
C1542       C  0.85241705  0.98211370  0.72459651    -0.18000
C1543       C  0.87974644  0.97386020  0.72013740     0.10300
C1544       C  0.88829216  0.94894875  0.74267183    -0.06800
C1545       C  0.86857262  0.93194574  0.76567357    -0.18100
C1546       C  0.84108032  0.94006806  0.76962760     0.10300
S1547       S  0.90217507  0.99552372  0.68296306    -0.33000
S1548       S  0.81818606  0.91750120  0.80374189    -0.33000
H1549       H  0.80571033  0.93867531  0.83223126     0.28300
H1550       H  0.91750822  0.97374580  0.66191540     0.28300
H1551       H  0.84627008  0.00133912  0.70736674     0.18900
H1552       H  0.87482650  0.91276940  0.78294437     0.18900
C1553       C  0.96076989  0.87852054  0.74613810    -0.06900
C1554       C  0.94519115  0.85916371  0.77319922    -0.18000
C1555       C  0.95394447  0.83194675  0.77753110     0.10300
C1556       C  0.97840814  0.82354177  0.75277259    -0.06800
C1557       C  0.99380291  0.84287405  0.72531611    -0.18100
C1558       C  0.98518427  0.87008349  0.72130193     0.10300
S1559       S  0.93401744  0.80963229  0.81811408    -0.33000
S1560       S  0.00573058  0.89257648  0.68209395    -0.33000
H1561       H  0.98331939  0.90735200  0.66238083     0.28300
H1562       H  0.95692587  0.79647348  0.83977116     0.28300
H1563       H  0.92673516  0.86556544  0.79314829     0.18900
H1564       H  0.01237528  0.83658363  0.70561370     0.18900
C1565       C  0.77635049  0.72481782  0.00470810    -0.06900
C1566       C  0.75418119  0.72018660  0.97142893    -0.18000
C1567       C  0.73372081  0.74000057  0.96422580     0.10300
C1568       C  0.73504865  0.76512750  0.99132891    -0.06800
C1569       C  0.75618127  0.76908378  0.52377545    -0.18100
C1570       C  0.77621130  0.74899350  0.53116002     0.10300
S1571       S  0.70739177  0.73243883  0.91807899    -0.33000
S1572       S  0.79675987  0.75174817  0.58804645    -0.33000
H1573       H  0.79751099  0.72337324  0.59765161     0.28300
H1574       H  0.70645555  0.75928826  0.89853544     0.28300
H1575       H  0.75308286  0.70116025  0.94984027     0.18900
H1576       H  0.75447003  0.78575864  0.55125288     0.18900
C1577       C  0.92957512  0.71594213  0.50742352    -0.06900
C1578       C  0.91157957  0.72798153  0.54287364    -0.18000
C1579       C  0.88453219  0.71882595  0.54794363     0.10300
C1580       C  0.87456634  0.69796016  0.51524816    -0.06800
C1581       C  0.89120715  0.68575506  0.97983676    -0.18100
C1582       C  0.91846038  0.69470199  0.97519112     0.10300
S1583       S  0.86445902  0.73342530  0.59908815    -0.33000
S1584       S  0.93891066  0.68023389  0.92420607    -0.33000
H1585       H  0.95281044  0.70471192  0.91240049     0.28300
H1586       H  0.84873342  0.70969071  0.60793634     0.28300
H1587       H  0.91890110  0.74416173  0.56792881     0.18900
H1588       H  0.88338141  0.67072346  0.95291783     0.18900
C1589       C  0.80042938  0.62700534  0.01274201    -0.06900
C1590       C  0.81747156  0.60708989  0.99009193    -0.18000
C1591       C  0.80946222  0.57949298  0.98704183     0.10300
C1592       C  0.78342469  0.57139805  0.00598149    -0.06800
C1593       C  0.76562452  0.59349284  0.51908588    -0.18100
C1594       C  0.77377009  0.62091389  0.52291664     0.10300
S1595       S  0.83274618  0.55607291  0.95597146    -0.33000
S1596       S  0.74936484  0.64424949  0.55151073    -0.33000
H1597       H  0.76900011  0.65753193  0.58231726     0.28300
H1598       H  0.83793865  0.54160468  0.00148222     0.28300
H1599       H  0.83703963  0.61310003  0.97384014     0.18900
H1600       H  0.74504296  0.58811641  0.53124035     0.18900
loop_ 
_geom_bond_atom_site_label_1 
_geom_bond_atom_site_label_2 
_geom_bond_distance 
_geom_bond_site_symmetry_2 
_ccdc_geom_bond_type 
C1            N2   1.360       .  A
C1            N6   1.359       .  A
C1          C180   1.476       .  S
N2          C203   1.359       .  A
C3            N4   1.355       .  A
C3          N202   1.358       .  A
C3          C165   1.472       .  S
N4            C5   1.358       .  A
C5          N206   1.359       .  A
C5          C189   1.476       .  S
N6          C205   1.359       .  A
C7            N8   1.359       .  A
C7           N12   1.357       .  A
C7          C144   1.477       .  S
N8            C9   1.359       .  A
C9           N10   1.356       .  A
C9          C153   1.472       .  S
N10          C11   1.354       .  A
C11          N12   1.356       .  A
C11         C129   1.477       .  S
C13          N14   1.359       .  A
C13          N18   1.357       .  A
C13         C108   1.478       .  S
N14          C15   1.361       .  A
C15          N16   1.359       .  A
C15         C117   1.477       .  S
N16          C17   1.357       .  A
C17          N18   1.354       .  A
C17         C168   1.469       .  S
O19         Ni27   1.920       .  S
O19          C29   1.281       .  A
O20         Ni27   1.918       .  S
O20          C30   1.280       .  A
O21         Ni27   1.910       .  S
O21          C31   1.279       .  A
O22         Ni27   1.909       .  S
O22         C432   1.280       .  A
O23         Ni28   1.917       .  S
O23          C32   1.281       .  A
O24         Ni28   1.915       .  S
O24         C431   1.282   1_545  A
O25         Ni28   1.917       .  S
O25         C430   1.280   1_545  A
O26         Ni28   1.912       .  S
O26         C429   1.279   1_545  A
Ni27       Ni428   2.392       .  S
Ni28       Ni427   2.392   1_545  S
C29          C45   1.457       .  S
C29         O426   1.278       .  A
C30          C46   1.456       .  S
C30         O425   1.279       .  A
C31         C141   1.479       .  S
C31         O424   1.283       .  A
C32          C93   1.473       .  S
C32         O422   1.281   1_545  A
O33        Ni641   1.917       .  S
O33         C243   1.280       .  A
O34         Ni41   1.915       .  S
O34          C44   1.282       .  A
O35         Ni41   1.914       .  S
O35         C445   1.279   1_545  A
O36        Ni241   1.914       .  S
O36         C446   1.279   1_545  A
O37        Ni242   1.916   1_554  S
O37          C46   1.280       .  A
O38         Ni42   1.917       .  S
O38          C45   1.279       .  A
O39        Ni642   1.918   1_545  S
O39         C244   1.280       .  A
O40         Ni42   1.913       .  S
O40          C43   1.281       .  A
Ni41        O633   1.914   1_545  S
Ni41        O236   1.914       .  S
Ni41       Ni442   2.392   1_545  S
Ni42        O237   1.917       .  S
Ni42        O639   1.917       .  S
Ni42       Ni441   2.389       .  S
C43         C105   1.477       .  S
C43         O233   1.280       .  A
C44         C192   1.478       .  S
C44         O239   1.280       .  A
C45         O435   1.280       .  A
C46         O436   1.279       .  A
C47          N48   1.356       .  A
C47          N52   1.360       .  A
C47          C81   1.476       .  S
N48          C49   1.353       .  A
C49          N50   1.355       .  A
C49         C132   1.475       .  S
N50          C51   1.357       .  A
C51          N52   1.360       .  A
C51          C96   1.475       .  S
O53         Ni61   1.917       .  S
O53         C863   1.280       .  A
O54         Ni61   1.915       .  S
O54         C864   1.279       .  A
O55         Ni61   1.913       .  S
O55          C65   1.280       .  A
O56         Ni61   1.911       .  S
O56         C866   1.281       .  A
O57         Ni62   1.910       .  S
O57          C66   1.280       .  A
O58         Ni62   1.910       .  S
O58         C865   1.281   1_455  A
O59         Ni62   1.913       .  S
O59          C64   1.279       .  A
O60         Ni62   1.917       .  S
O60          C63   1.280       .  A
Ni61       Ni862   2.392       .  S
Ni62       Ni861   2.392   1_455  S
C63          C79   1.458       .  S
C63         O853   1.280   1_455  A
C64          C80   1.454       .  S
C64         O854   1.279   1_455  A
C65         C156   1.475       .  S
C65         O858   1.281       .  A
C66          C84   1.472       .  S
C66         O856   1.281   1_455  A
O67       Ni1075   1.916       .  S
O67         C277   1.281       .  A
O68         Ni75   1.917   1_556  S
O68          C78   1.281       .  A
O69         Ni75   1.919       .  S
O69          C79   1.280       .  A
O70        Ni275   1.916       .  S
O70          C80   1.280       .  A
O71        Ni276   1.913       .  S
O71         C880   1.279       .  A
O72         Ni76   1.915       .  S
O72         C879   1.279       .  A
O73       Ni1076   1.916   1_455  S
O73         C278   1.281       .  A
O74         Ni76   1.917       .  S
O74          C77   1.281       .  A
Ni75       O1067   1.918   1_455  S
Ni75        O270   1.913   1_554  S
Ni75       Ni876   2.392   1_455  S
Ni76        O271   1.919   1_554  S
Ni76       O1073   1.917       .  S
Ni76       Ni875   2.392       .  S
C77         C177   1.475       .  S
C77         O267   1.281       .  A
C78         C120   1.475       .  S
C78         O273   1.280   1_556  A
C79         O872   1.279   1_455  A
C80         O871   1.279   1_455  A
C81          C82   1.405       .  A
C81          C86   1.413       .  A
C82          C83   1.393       .  A
C82          H91   1.083       .  S
C83          C84   1.411       .  A
C83          S87   1.805   1_455  S
C84          C85   1.405       .  A
C85          C86   1.399       .  A
C85          H92   1.085       .  S
C86          S88   1.802       .  S
S87          H90   1.407       .  S
S88          H89   1.407       .  S
C93          C94   1.401       .  A
C93          C98   1.414       .  A
C94          C95   1.394       .  A
C94         H103   1.085   1_545  S
C95          C96   1.414       .  A
C95          S99   1.804       .  S
C96          C97   1.404       .  A
C97          C98   1.401       .  A
C97         H104   1.085       .  S
C98         S100   1.803       .  S
S99         H102   1.407       .  S
S100        H101   1.407       .  S
C105        C106   1.402       .  A
C105        C310   1.413       .  A
C106        C107   1.395       .  A
C106        H115   1.084       .  S
C107        C108   1.414       .  A
C107        S111   1.804       .  S
C108        C309   1.405       .  A
C109        C110   1.401       .  A
C109        C308   1.404   1_554  A
C109        H116   1.084       .  S
C110        C305   1.412   1_554  A
C110        S112   1.800       .  S
S111        H114   1.407       .  S
S112        H113   1.406       .  S
C117        C122   1.414       .  A
C117        C318   1.404       .  A
C118        C119   1.400       .  A
C118        C317   1.405   1_554  A
C118        H127   1.084       .  S
C119        C120   1.411   1_554  A
C119        S123   1.799       .  S
C120        C321   1.403       .  A
C121        C122   1.399       .  A
C121        C320   1.403       .  A
C121        H128   1.084       .  S
C122        S124   1.803       .  S
S123        H126   1.407       .  S
S124        H125   1.407       .  S
C129        C130   1.403       .  A
C129        C134   1.415       .  A
C130       C1331   1.394       .  A
C130        H139   1.083       .  S
C131        C132   1.414       .  A
C131       C1330   1.394   1_445  A
C131        S135   1.803   1_455  S
C132        C133   1.404   1_545  A
C133       C1334   1.398       .  A
C133        H140   1.084       .  S
C134       C1333   1.399       .  A
C134        S136   1.803       .  S
S135        H138   1.407   1_655  S
S136        H137   1.407       .  S
C141        C142   1.404       .  A
C141        C146   1.417       .  A
C142        C143   1.396       .  A
C142        H151   1.083       .  S
C143        C144   1.414       .  A
C143        S147   1.804       .  S
C144        C145   1.403       .  A
C145        C146   1.399       .  A
C145        H152   1.083       .  S
C146        S148   1.803       .  S
S147        H150   1.407       .  S
S148        H149   1.407       .  S
C153        C154   1.403       .  A
C153        C158   1.413       .  A
C154        C155   1.399       .  A
C154        H163   1.083       .  S
C155        C156   1.415       .  A
C155        S159   1.803       .  S
C156        C157   1.403       .  A
C157        C158   1.395       .  A
C157        H164   1.084       .  S
C158        S160   1.804       .  S
S159        H162   1.408       .  S
S160        H161   1.407       .  S
C165        C166   1.403       .  A
C165        C370   1.412       .  A
C166        C167   1.401       .  A
C166        H175   1.085       .  S
C167        C168   1.412       .  A
C167        S171   1.803       .  S
C168        C369   1.400       .  A
C169        C170   1.397       .  A
C169        C368   1.402   1_554  A
C169        H176   1.086       .  S
C170        C365   1.412   1_554  A
C170        S172   1.800       .  S
S171        H174   1.406       .  S
S172        H173   1.407       .  S
C177        C178   1.402       .  A
C177        C382   1.413   1_554  A
C178        C179   1.398       .  A
C178        H187   1.084       .  S
C179        C180   1.412       .  A
C179        S183   1.801       .  S
C180        C381   1.403   1_554  A
C181        C182   1.401       .  A
C181        C380   1.403       .  A
C181        H188   1.084       .  S
C182        C377   1.414       .  A
C182        S184   1.803       .  S
S183        H186   1.407       .  S
S184        H185   1.407       .  S
C189        C190   1.404       .  A
C189        C394   1.414       .  A
C190        C191   1.402       .  A
C190        H199   1.083       .  S
C191        C192   1.415       .  A
C191        S195   1.800       .  S
C192        C393   1.402       .  A
C193        C194   1.396       .  A
C193        C392   1.403       .  A
C193        H200   1.084       .  S
C194        C389   1.414       .  A
C194        S196   1.804       .  S
S195        H198   1.407       .  S
S196        H197   1.407       .  S
C201        N202   1.359       .  A
C201        N206   1.360       .  A
C201        C380   1.478       .  S
C203        N204   1.356   1_554  A
C203        C365   1.476   1_554  S
N204        C205   1.358   1_556  A
C205        C389   1.478       .  S
C207        N208   1.359       .  A
C207        N212   1.357       .  A
C207        C344   1.476       .  S
N208        C209   1.359       .  A
C209        N210   1.356       .  A
C209        C353   1.475       .  S
N210        C211   1.354       .  A
C211        N212   1.356       .  A
C211        C329   1.478       .  S
C213        N214   1.358       .  A
C213        N218   1.357       .  A
C213        C308   1.473       .  S
N214        C215   1.359       .  A
C215        N216   1.360       .  A
C215        C317   1.477       .  S
N216        C217   1.358       .  A
C217        N218   1.357       .  A
C217        C368   1.474       .  S
O219       Ni227   1.917       .  S
O219        C229   1.280       .  A
O220       Ni227   1.916       .  S
O220        C230   1.280       .  A
O221       Ni227   1.911       .  S
O221        C231   1.279       .  A
O222       Ni227   1.910       .  S
O222        C632   1.280       .  A
O223       Ni228   1.916       .  S
O223        C232   1.281       .  A
O224       Ni228   1.913       .  S
O224        C631   1.282   1_545  A
O225       Ni228   1.916       .  S
O225        C630   1.279   1_545  A
O226       Ni228   1.913       .  S
O226        C629   1.279   1_545  A
Ni227      Ni628   2.392       .  S
Ni228      Ni627   2.391   1_545  S
C229        C245   1.455       .  S
C229        O626   1.279       .  A
C230        C246   1.456       .  S
C230        O625   1.279       .  A
C231        C341   1.478       .  S
C231        O624   1.282       .  A
C232        C293   1.476       .  S
C232        O622   1.281   1_545  A
O233       Ni441   1.918       .  S
O234       Ni241   1.914       .  S
O234        C244   1.282       .  A
O235       Ni241   1.917   1_556  S
O235        C645   1.280   1_545  A
O236        C646   1.279   1_545  A
O237        C246   1.280       .  A
O238       Ni242   1.914       .  S
O238        C245   1.279       .  A
O239       Ni442   1.917   1_545  S
O240       Ni242   1.915       .  S
O240        C243   1.281       .  A
Ni241       O433   1.914   1_545  S
Ni241      Ni642   2.392   1_545  S
Ni242       O439   1.919   1_556  S
Ni242      Ni641   2.391       .  S
C243        C305   1.473       .  S
C244        C392   1.480       .  S
C245        O635   1.280       .  A
C246        O636   1.279       .  A
C247        N248   1.357       .  A
C247        N252   1.360       .  A
C247        C281   1.478       .  S
N248        C249   1.353       .  A
C249        N250   1.354       .  A
C249        C332   1.475       .  S
N250        C251   1.357       .  A
C251        N252   1.360       .  A
C251        C296   1.477       .  S
O253       Ni261   1.915       .  S
O253       C1063   1.280       .  A
O254       Ni261   1.916       .  S
O254       C1064   1.279       .  A
O255       Ni261   1.913       .  S
O255        C265   1.280       .  A
O256       Ni261   1.910       .  S
O256       C1066   1.281       .  A
O257       Ni262   1.913       .  S
O257        C266   1.280       .  A
O258       Ni262   1.913       .  S
O258       C1065   1.281   1_455  A
O259       Ni262   1.916       .  S
O259        C264   1.280       .  A
O260       Ni262   1.918       .  S
O260        C263   1.280       .  A
Ni261     Ni1062   2.392       .  S
Ni262     Ni1061   2.392   1_455  S
C263        C279   1.457       .  S
C263       O1053   1.280   1_455  A
C264        C280   1.456       .  S
C264       O1054   1.279   1_455  A
C265        C356   1.477       .  S
C265       O1058   1.281       .  A
C266        C284   1.475       .  S
C266       O1056   1.281   1_455  A
O267       Ni875   1.918       .  S
O268       Ni275   1.917       .  S
O268        C278   1.281       .  A
O269       Ni275   1.922       .  S
O269        C279   1.281       .  A
O270        C280   1.279       .  A
O271       C1080   1.280       .  A
O272       Ni276   1.911       .  S
O272       C1079   1.278       .  A
O273       Ni876   1.916   1_455  S
O274       Ni276   1.916       .  S
O274        C277   1.281       .  A
Ni275       O867   1.916   1_455  S
Ni275     Ni1076   2.393   1_455  S
Ni276       O873   1.916       .  S
Ni276     Ni1075   2.393       .  S
C277        C377   1.475       .  S
C278        C320   1.475       .  S
C279       O1072   1.278   1_455  A
C280       O1071   1.280   1_455  A
C281        C282   1.404       .  A
C281        C286   1.414       .  A
C282        C283   1.393       .  A
C282        H291   1.083       .  S
C283        C284   1.412       .  A
C283        S287   1.805   1_455  S
C284        C285   1.405       .  A
C285        C286   1.401       .  A
C285        H292   1.084       .  S
C286        S288   1.802       .  S
S287        H290   1.407   1_655  S
S288        H289   1.407       .  S
C293        C294   1.402       .  A
C293        C298   1.415       .  A
C294        C295   1.396       .  A
C294        H303   1.084   1_545  S
C295        C296   1.415       .  A
C295        S299   1.804       .  S
C296        C297   1.404       .  A
C297        C298   1.401       .  A
C297        H304   1.084       .  S
C298        S300   1.803       .  S
S299        H302   1.407       .  S
S300        H301   1.407       .  S
C305        C306   1.402       .  A
C306        C307   1.397       .  A
C306        H315   1.084       .  S
C307        C308   1.412       .  A
C307        S311   1.804       .  S
C309        C310   1.403       .  A
C309        H316   1.084       .  S
C310        S312   1.799       .  S
S311        H314   1.407       .  S
S312        H313   1.407       .  S
C317        C322   1.413       .  A
C318        C319   1.399       .  A
C318        H327   1.084       .  S
C319        C320   1.411       .  A
C319        S323   1.799       .  S
C321        C322   1.398       .  A
C321        H328   1.084       .  S
C322        S324   1.802       .  S
S323        H326   1.407       .  S
S324        H325   1.407       .  S
C329        C330   1.403       .  A
C329        C334   1.415       .  A
C330       C1531   1.395       .  A
C330        H339   1.083       .  S
C331       C1530   1.395   1_455  A
C331        C332   1.414       .  A
C331        S335   1.803   1_455  S
C332        C333   1.403   1_545  A
C333       C1534   1.398       .  A
C333        H340   1.084       .  S
C334       C1533   1.398       .  A
C334        S336   1.803       .  S
S335        H338   1.407   1_655  S
S336        H337   1.407       .  S
C341        C342   1.403       .  A
C341        C346   1.416       .  A
C342        C343   1.395       .  A
C342        H351   1.083       .  S
C343        C344   1.413       .  A
C343        S347   1.804       .  S
C344        C345   1.403       .  A
C345        C346   1.400       .  A
C345        H352   1.083       .  S
C346        S348   1.803       .  S
S347        H350   1.407       .  S
S348        H349   1.407       .  S
C353        C354   1.403       .  A
C353        C358   1.414       .  A
C354        C355   1.399       .  A
C354        H363   1.083       .  S
C355        C356   1.415       .  A
C355        S359   1.803       .  S
C356        C357   1.403       .  A
C357        C358   1.396       .  A
C357        H364   1.084       .  S
C358        S360   1.804       .  S
S359        H362   1.408       .  S
S360        H361   1.407       .  S
C365        C366   1.404       .  A
C366        C367   1.401       .  A
C366        H375   1.085       .  S
C367        C368   1.413       .  A
C367        S371   1.801       .  S
C369        C370   1.396       .  A
C369        H376   1.086       .  S
C370        S372   1.800       .  S
S371        H374   1.406       .  S
S372        H373   1.406       .  S
C377        C378   1.401       .  A
C378        C379   1.397       .  A
C378        H387   1.084       .  S
C379        C380   1.413       .  A
C379        S383   1.799       .  S
C381        C382   1.401       .  A
C381        H388   1.084       .  S
C382        S384   1.803       .  S
S383        H386   1.407       .  S
S384        H385   1.406       .  S
C389        C390   1.404   1_554  A
C390        C391   1.401       .  A
C390        H399   1.084       .  S
C391        C392   1.414   1_556  A
C391        S395   1.799       .  S
C393        C394   1.396       .  A
C393        H400   1.084       .  S
C394        S396   1.804       .  S
S395        H398   1.407       .  S
S396        H397   1.407       .  S
C401        N402   1.361       .  A
C401        N406   1.360       .  A
C401        C580   1.478       .  S
N402        C603   1.360       .  A
C403        N602   1.358       .  A
C403        N404   1.355       .  A
C403        C565   1.476       .  S
N404        C405   1.357       .  A
C405        N606   1.362       .  A
C405        C589   1.489       .  S
N406        C605   1.360       .  A
C407        N408   1.361       .  A
C407        N412   1.356       .  A
C407        C544   1.480       .  S
N408        C409   1.361       .  A
C409        N410   1.356       .  A
C409        C553   1.476       .  S
N410        C411   1.354       .  A
C411        N412   1.355       .  A
C411        C529   1.475       .  S
C413        N414   1.358       .  A
C413        N418   1.355       .  A
C413        C508   1.473       .  S
N414        C415   1.361       .  A
C415        N416   1.361       .  A
C415        C517   1.478       .  S
N416        C417   1.359       .  A
C417        N418   1.354       .  A
C417        C568   1.473       .  S
O419       Ni427   1.916       .  S
O419        C429   1.280       .  A
O420       Ni427   1.915       .  S
O420        C430   1.279       .  A
O421       Ni427   1.912       .  S
O421        C431   1.280       .  A
O422       Ni427   1.911       .  S
O423       Ni428   1.917       .  S
O423        C432   1.281       .  A
O424       Ni428   1.916       .  S
O425       Ni428   1.913       .  S
O426       Ni428   1.913       .  S
C429        C445   1.454       .  S
C430        C446   1.456       .  S
C431        C541   1.480       .  S
C432        C493   1.475       .  S
O433        C643   1.280       .  A
O434       Ni441   1.919       .  S
O434        C444   1.283       .  A
O435       Ni441   1.916       .  S
O436       Ni641   1.914   1_554  S
O437       Ni642   1.917       .  S
O437        C446   1.280       .  A
O438       Ni442   1.914       .  S
O438        C445   1.279       .  A
O439        C644   1.280       .  A
O440       Ni442   1.914       .  S
O440        C443   1.281       .  A
Ni441       O636   1.915       .  S
Ni442       O637   1.919       .  S
C443        C505   1.472       .  S
C443        O633   1.280       .  A
C444        C592   1.491       .  S
C444        O639   1.280       .  A
C447        N448   1.357       .  A
C447        N452   1.359       .  A
C447        C481   1.477       .  S
N448        C449   1.355       .  A
C449        N450   1.355       .  A
C449        C532   1.475       .  S
N450        C451   1.357       .  A
C451        N452   1.359       .  A
C451        C496   1.476       .  S
O453       Ni461   1.916       .  S
O453       C1263   1.280       .  A
O454       Ni461   1.917       .  S
O454       C1264   1.280       .  A
O455       Ni461   1.912       .  S
O455        C465   1.280       .  A
O456       Ni461   1.909       .  S
O456       C1266   1.280       .  A
O457       Ni462   1.916       .  S
O457        C466   1.281       .  A
O458       Ni462   1.917       .  S
O458       C1265   1.282   1_455  A
O459       Ni462   1.916       .  S
O459        C464   1.280       .  A
O460       Ni462   1.915       .  S
O460        C463   1.279       .  A
Ni461     Ni1262   2.392       .  S
Ni462     Ni1261   2.392   1_455  S
C463        C479   1.455       .  S
C463       O1253   1.280   1_455  A
C464        C480   1.457       .  S
C464       O1254   1.280   1_455  A
C465        C556   1.478       .  S
C465       O1258   1.282       .  A
C466        C484   1.475       .  S
C466       O1256   1.280   1_455  A
O467      Ni1475   1.917       .  S
O467        C677   1.280       .  A
O468       Ni475   1.917   1_556  S
O468        C478   1.281   1_556  A
O469       Ni475   1.919       .  S
O469        C479   1.281       .  A
O470       Ni675   1.918       .  S
O470        C480   1.280       .  A
O471       Ni676   1.914       .  S
O471       C1280   1.279       .  A
O472       Ni476   1.912       .  S
O472       C1279   1.278       .  A
O473      Ni1476   1.920   1_455  S
O473        C678   1.281       .  A
O474       Ni476   1.916       .  S
O474        C477   1.281       .  A
Ni475      O1467   1.918   1_455  S
Ni475       O670   1.914   1_554  S
Ni475     Ni1276   2.393   1_455  S
Ni476       O671   1.916   1_554  S
Ni476      O1473   1.918       .  S
Ni476     Ni1275   2.393       .  S
C477        C577   1.474       .  S
C477        O667   1.281       .  A
C478        C520   1.473   1_554  S
C478        O673   1.281       .  A
C479       O1272   1.278   1_455  A
C480       O1271   1.279   1_455  A
C481        C482   1.403       .  A
C481        C486   1.414       .  A
C482        C483   1.394       .  A
C482        H491   1.083       .  S
C483        C484   1.413       .  A
C483        S487   1.804   1_455  S
C484        C485   1.405       .  A
C485        C486   1.400       .  A
C485        H492   1.084       .  S
C486        S488   1.803       .  S
S487        H490   1.407   1_655  S
S488        H489   1.407       .  S
C493        C494   1.402       .  A
C493        C498   1.414       .  A
C494        C495   1.396       .  A
C494        H503   1.085       .  S
C495        C496   1.415       .  A
C495        S499   1.804       .  S
C496        C497   1.404       .  A
C497        C498   1.399       .  A
C497        H504   1.085       .  S
C498        S500   1.803       .  S
S499        H502   1.407       .  S
S500        H501   1.407       .  S
C505        C506   1.401       .  A
C505        C710   1.412       .  A
C506        C507   1.395       .  A
C506        H515   1.084       .  S
C507        C508   1.413       .  A
C507        S511   1.805       .  S
C508        C709   1.404       .  A
C509        C708   1.404   1_554  A
C509        C510   1.401       .  A
C509        H516   1.084       .  S
C510        C705   1.412       .  A
C510        S512   1.800       .  S
S511        H514   1.407       .  S
S512        H513   1.406       .  S
C517        C718   1.404       .  A
C517        C522   1.413       .  A
C518        C717   1.403   1_554  A
C518        C519   1.401       .  A
C518        H527   1.084       .  S
C519        C520   1.411   1_554  A
C519        S523   1.800       .  S
C520        C721   1.402       .  A
C521        C720   1.403       .  A
C521        C522   1.400       .  A
C521        H528   1.084       .  S
C522        S524   1.802       .  S
S523        H526   1.405       .  S
S524        H525   1.407       .  S
C529        C530   1.402       .  A
C529        C534   1.414       .  A
C530        C931   1.394   1_565  A
C530        H539   1.083   1_565  S
C531        C930   1.394       .  A
C531        C532   1.413   1_655  A
C531        S535   1.803       .  S
C532        C533   1.404       .  A
C533        C934   1.399       .  A
C533        H540   1.084       .  S
C534        C933   1.398       .  A
C534        S536   1.803       .  S
S535        H538   1.407   1_655  S
S536        H537   1.407       .  S
C541        C542   1.403       .  A
C541        C546   1.417       .  A
C542        C543   1.395       .  A
C542        H551   1.083   1_565  S
C543        C544   1.415       .  A
C543        S547   1.804       .  S
C544        C545   1.404       .  A
C545        C546   1.400       .  A
C545        H552   1.083       .  S
C546        S548   1.803       .  S
S547        H550   1.407       .  S
S548        H549   1.408       .  S
C553        C554   1.403       .  A
C553        C558   1.414       .  A
C554        C555   1.399       .  A
C554        H563   1.083       .  S
C555        C556   1.415       .  A
C555        S559   1.803       .  S
C556        C557   1.403       .  A
C557        C558   1.397       .  A
C557        H564   1.084       .  S
C558        S560   1.805       .  S
S559        H562   1.407       .  S
S560        H561   1.407       .  S
C565        C566   1.404       .  A
C565        C770   1.412       .  A
C566        C567   1.400       .  A
C566        H575   1.085       .  S
C567        C568   1.411       .  A
C567        S571   1.801       .  S
C568        C769   1.401       .  A
C569        C768   1.403   1_554  A
C569        C570   1.397       .  A
C569        H576   1.085       .  S
C570        C765   1.413       .  A
C570        S572   1.796       .  S
S571        H574   1.407       .  S
S572        H573   1.407       .  S
C577        C578   1.401       .  A
C577        C782   1.413   1_554  A
C578        C579   1.397       .  A
C578        H587   1.084       .  S
C579        C580   1.412       .  A
C579        S583   1.799       .  S
C580        C781   1.404   1_554  A
C581        C780   1.404       .  A
C581        C582   1.402       .  A
C581        H588   1.084       .  S
C582        C777   1.414       .  A
C582        S584   1.803       .  S
S583        H586   1.406       .  S
S584        H585   1.407       .  S
C589        C590   1.405       .  A
C589        C794   1.418       .  A
C590        C591   1.402       .  A
C590        H599   1.083       .  S
C591        C592   1.419       .  A
C591        S595   1.799       .  S
C592        C793   1.405       .  A
C593        C792   1.404       .  A
C593        C594   1.397       .  A
C593        H600   1.084       .  S
C594        C789   1.416       .  A
C594        S596   1.804       .  S
S595        H598   1.408       .  S
S596        H597   1.408       .  S
C601        N602   1.360       .  A
C601        N606   1.361       .  A
C601        C780   1.479       .  S
C603        N604   1.356       .  A
C603        C765   1.484       .  S
N604        C605   1.357       .  A
C605        C789   1.485       .  S
C607        N608   1.359       .  A
C607        N612   1.357       .  A
C607        C744   1.478       .  S
N608        C609   1.359       .  A
C609        N610   1.355       .  A
C609        C753   1.473       .  S
N610        C611   1.354       .  A
C611        N612   1.356       .  A
C611        C729   1.476       .  S
C613        N614   1.358       .  A
C613        N618   1.356       .  A
C613        C708   1.474       .  S
N614        C615   1.359       .  A
C615        N616   1.360       .  A
C615        C717   1.473       .  S
N616        C617   1.359       .  A
C617        N618   1.357       .  A
C617        C768   1.482       .  S
O619       Ni627   1.920       .  S
O619        C629   1.281       .  A
O620       Ni627   1.918       .  S
O620        C630   1.280       .  A
O621       Ni627   1.913       .  S
O621        C631   1.280       .  A
O622       Ni627   1.913       .  S
O623       Ni628   1.917       .  S
O623        C632   1.281       .  A
O624       Ni628   1.915       .  S
O625       Ni628   1.915       .  S
O626       Ni628   1.914       .  S
C629        C645   1.457       .  S
C630        C646   1.457       .  S
C631        C741   1.479       .  S
C632        C693   1.474       .  S
O634       Ni641   1.917   1_554  S
O634        C644   1.283       .  A
O635       Ni641   1.916       .  S
O637        C646   1.281       .  A
O638       Ni642   1.915   1_556  S
O638        C645   1.279       .  A
O640       Ni642   1.916       .  S
O640        C643   1.281       .  A
C643        C705   1.473       .  S
C644        C792   1.487       .  S
C647        N648   1.356       .  A
C647        N652   1.358       .  A
C647        C681   1.473       .  S
N648        C649   1.354       .  A
C649        N650   1.356       .  A
C649        C732   1.477       .  S
N650        C651   1.358       .  A
C651        N652   1.358       .  A
C651        C696   1.475       .  S
O653       Ni661   1.918       .  S
O653       C1463   1.280       .  A
O654       Ni661   1.917       .  S
O654       C1464   1.280       .  A
O655       Ni661   1.910       .  S
O655        C665   1.280       .  A
O656       Ni661   1.907       .  S
O656       C1466   1.280       .  A
O657       Ni662   1.910       .  S
O657        C666   1.280       .  A
O658       Ni662   1.912       .  S
O658       C1465   1.281   1_455  A
O659       Ni662   1.914       .  S
O659        C664   1.279       .  A
O660       Ni662   1.916       .  S
O660        C663   1.279       .  A
Ni661     Ni1462   2.393       .  S
Ni662     Ni1461   2.393   1_455  S
C663        C679   1.458       .  S
C663       O1453   1.280   1_455  A
C664        C680   1.455       .  S
C664       O1454   1.280   1_455  A
C665        C756   1.474       .  S
C665       O1458   1.281       .  A
C666        C684   1.470       .  S
C666       O1456   1.280   1_455  A
O667      Ni1275   1.918       .  S
O668       Ni675   1.917       .  S
O668        C678   1.281       .  A
O669       Ni675   1.923       .  S
O669        C679   1.282       .  A
O670        C680   1.279       .  A
O671       C1480   1.279       .  A
O672       Ni676   1.911       .  S
O672       C1479   1.278       .  A
O673      Ni1276   1.918   1_455  S
O674       Ni676   1.918       .  S
O674        C677   1.282       .  A
Ni675      O1267   1.917   1_455  S
Ni675     Ni1476   2.392   1_455  S
Ni676      O1273   1.920       .  S
Ni676     Ni1475   2.392       .  S
C677        C777   1.476       .  S
C678        C720   1.476       .  S
C679       O1472   1.278   1_455  A
C680       O1471   1.279   1_455  A
C681        C682   1.403       .  A
C681        C686   1.413       .  A
C682        C683   1.392       .  A
C682        H691   1.083       .  S
C683        C684   1.412       .  A
C683        S687   1.805   1_455  S
C684        C685   1.404       .  A
C685        C686   1.398       .  A
C685        H692   1.085       .  S
C686        S688   1.803       .  S
S687        H690   1.407   1_655  S
S688        H689   1.407       .  S
C693        C694   1.402       .  A
C693        C698   1.414       .  A
C694        C695   1.395       .  A
C694        H703   1.085       .  S
C695        C696   1.414       .  A
C695        S699   1.804       .  S
C696        C697   1.404       .  A
C697        C698   1.400       .  A
C697        H704   1.085       .  S
C698        S700   1.803       .  S
S699        H702   1.407       .  S
S700        H701   1.407       .  S
C705        C706   1.401   1_554  A
C706        C707   1.396       .  A
C706        H715   1.084       .  S
C707        C708   1.413       .  A
C707        S711   1.804       .  S
C709        C710   1.401       .  A
C709        H716   1.084       .  S
C710        S712   1.799       .  S
S711        H714   1.407       .  S
S712        H713   1.406       .  S
C717        C722   1.412       .  A
C718        C719   1.401       .  A
C718        H727   1.084       .  S
C719        C720   1.411       .  A
C719        S723   1.799       .  S
C721        C722   1.399       .  A
C721        H728   1.084       .  S
C722        S724   1.803       .  S
S723        H726   1.406       .  S
S724        H725   1.407       .  S
C729        C730   1.403   1_565  A
C729        C734   1.415       .  A
C730       C1131   1.395       .  A
C730        H739   1.083       .  S
C731       C1130   1.395       .  A
C731        C732   1.415   1_655  A
C731        S735   1.803       .  S
C732        C733   1.404       .  A
C733       C1134   1.398       .  A
C733        H740   1.084       .  S
C734       C1133   1.398       .  A
C734        S736   1.803       .  S
S735        H738   1.407   1_655  S
S736        H737   1.407       .  S
C741        C742   1.404       .  A
C741        C746   1.416       .  A
C742        C743   1.395       .  A
C742        H751   1.083   1_565  S
C743        C744   1.414       .  A
C743        S747   1.804       .  S
C744        C745   1.404       .  A
C745        C746   1.400       .  A
C745        H752   1.083       .  S
C746        S748   1.803       .  S
S747        H750   1.407       .  S
S748        H749   1.407       .  S
C753        C754   1.403       .  A
C753        C758   1.414       .  A
C754        C755   1.398       .  A
C754        H763   1.083       .  S
C755        C756   1.414       .  A
C755        S759   1.803       .  S
C756        C757   1.402       .  A
C757        C758   1.395       .  A
C757        H764   1.084       .  S
C758        S760   1.804       .  S
S759        H762   1.408       .  S
S760        H761   1.407       .  S
C765        C766   1.406   1_554  A
C766        C767   1.401       .  A
C766        H775   1.085       .  S
C767        C768   1.414       .  A
C767        S771   1.799       .  S
C769        C770   1.396       .  A
C769        H776   1.086       .  S
C770        S772   1.798       .  S
S771        H774   1.407       .  S
S772        H773   1.407       .  S
C777        C778   1.401       .  A
C778        C779   1.397       .  A
C778        H787   1.084       .  S
C779        C780   1.413       .  A
C779        S783   1.799       .  S
C781        C782   1.402       .  A
C781        H788   1.084       .  S
C782        S784   1.803       .  S
S783        H786   1.407       .  S
S784        H785   1.406       .  S
C789        C790   1.405   1_554  A
C790        C791   1.402       .  A
C790        H799   1.083       .  S
C791        C792   1.417   1_556  A
C791        S795   1.799       .  S
C793        C794   1.397       .  A
C793        H800   1.083       .  S
C794        S796   1.804       .  S
S795        H798   1.408   1_556  S
S796        H797   1.408       .  S
C801        N802   1.360       .  A
C801        N806   1.359       .  A
C801        C980   1.476       .  S
N802       C1003   1.359       .  A
C803       N1002   1.358       .  A
C803        N804   1.355       .  A
C803        C965   1.472       .  S
N804        C805   1.358       .  A
C805       N1006   1.359       .  A
C805        C989   1.476       .  S
N806       C1005   1.359       .  A
C807        N808   1.359       .  A
C807        N812   1.357       .  A
C807        C944   1.477       .  S
N808        C809   1.359       .  A
C809        N810   1.356       .  A
C809        C953   1.472       .  S
N810        C811   1.354       .  A
C811        N812   1.356       .  A
C811        C929   1.477       .  S
C813        N814   1.359       .  A
C813        N818   1.357       .  A
C813        C908   1.478       .  S
N814        C815   1.361       .  A
C815        N816   1.359       .  A
C815        C917   1.477       .  S
N816        C817   1.357       .  A
C817        N818   1.354       .  A
C817        C968   1.469       .  S
O819       Ni827   1.920       .  S
O819        C829   1.281       .  A
O820       Ni827   1.918       .  S
O820        C830   1.280       .  A
O821       Ni827   1.910       .  S
O821        C831   1.279       .  A
O822       Ni827   1.909       .  S
O822       C1232   1.280       .  A
O823       Ni828   1.917       .  S
O823        C832   1.281       .  A
O824       Ni828   1.915       .  S
O824       C1231   1.282   1_545  A
O825       Ni828   1.917       .  S
O825       C1230   1.280   1_545  A
O826       Ni828   1.912       .  S
O826       C1229   1.279   1_545  A
Ni827     Ni1228   2.392       .  S
Ni828     Ni1227   2.392   1_545  S
C829        C845   1.457       .  S
C829       O1226   1.278       .  A
C830        C846   1.456       .  S
C830       O1225   1.279       .  A
C831        C941   1.479       .  S
C831       O1224   1.283       .  A
C832        C893   1.473       .  S
C832       O1222   1.281   1_545  A
O833      Ni1441   1.917       .  S
O833       C1043   1.280       .  A
O834       Ni841   1.915       .  S
O834        C844   1.282       .  A
O835       Ni841   1.914       .  S
O835       C1245   1.279   1_545  A
O836      Ni1041   1.914       .  S
O836       C1246   1.279   1_545  A
O837      Ni1042   1.916   1_554  S
O837        C846   1.280       .  A
O838       Ni842   1.917       .  S
O838        C845   1.279       .  A
O839      Ni1442   1.917   1_545  S
O839       C1044   1.280       .  A
O840       Ni842   1.913       .  S
O840        C843   1.281       .  A
Ni841      O1433   1.914   1_545  S
Ni841      O1036   1.914       .  S
Ni841     Ni1242   2.392   1_545  S
Ni842      O1037   1.917       .  S
Ni842      O1439   1.917       .  S
Ni842     Ni1241   2.389       .  S
C843        C905   1.477       .  S
C843       O1033   1.280       .  A
C844        C992   1.478       .  S
C844       O1039   1.280       .  A
C845       O1235   1.280       .  A
C846       O1236   1.279       .  A
C847        N848   1.356       .  A
C847        N852   1.360       .  A
C847        C881   1.476       .  S
N848        C849   1.353       .  A
C849        N850   1.355       .  A
C849        C932   1.475       .  S
N850        C851   1.357       .  A
C851        N852   1.360       .  A
C851        C896   1.475       .  S
O853       Ni861   1.917       .  S
O854       Ni861   1.915       .  S
O855       Ni861   1.913       .  S
O855        C865   1.280       .  A
O856       Ni861   1.911       .  S
O857       Ni862   1.910       .  S
O857        C866   1.280       .  A
O858       Ni862   1.910       .  S
O859       Ni862   1.913       .  S
O859        C864   1.279       .  A
O860       Ni862   1.917       .  S
O860        C863   1.280       .  A
C863        C879   1.458       .  S
C864        C880   1.454       .  S
C865        C956   1.475       .  S
C866        C884   1.472       .  S
O867       C1077   1.281       .  A
O868       Ni875   1.916   1_556  S
O868        C878   1.281       .  A
O869       Ni875   1.919       .  S
O869        C879   1.280       .  A
O870      Ni1075   1.916       .  S
O870        C880   1.280       .  A
O871      Ni1076   1.913       .  S
O872       Ni876   1.915       .  S
O873       C1078   1.281       .  A
O874       Ni876   1.916       .  S
O874        C877   1.281       .  A
Ni875      O1070   1.913   1_554  S
Ni876      O1071   1.919   1_554  S
C877        C977   1.474       .  S
C877       O1067   1.281       .  A
C878        C920   1.475       .  S
C878       O1073   1.280   1_556  A
C881        C882   1.405       .  A
C881        C886   1.413       .  A
C882        C883   1.393       .  A
C882        H891   1.083       .  S
C883        C884   1.411       .  A
C883        S887   1.805       .  S
C884        C885   1.405       .  A
C885        C886   1.399       .  A
C885        H892   1.085       .  S
C886        S888   1.802       .  S
S887        H890   1.407       .  S
S888        H889   1.407       .  S
C893        C894   1.401       .  A
C893        C898   1.414       .  A
C894        C895   1.394       .  A
C894        H903   1.085   1_545  S
C895        C896   1.414       .  A
C895        S899   1.804       .  S
C896        C897   1.404       .  A
C897        C898   1.401       .  A
C897        H904   1.085       .  S
C898        S900   1.803       .  S
S899        H902   1.407       .  S
S900        H901   1.407       .  S
C905        C906   1.402       .  A
C905       C1110   1.413       .  A
C906        C907   1.395       .  A
C906        H915   1.084       .  S
C907        C908   1.414       .  A
C907        S911   1.804       .  S
C908       C1109   1.405       .  A
C909       C1108   1.404   1_554  A
C909        C910   1.401       .  A
C909        H916   1.084       .  S
C910       C1105   1.412   1_554  A
C910        S912   1.800       .  S
S911        H914   1.407       .  S
S912        H913   1.406       .  S
C917       C1118   1.404       .  A
C917        C922   1.414       .  A
C918       C1117   1.405   1_554  A
C918        C919   1.400       .  A
C918        H927   1.084       .  S
C919        C920   1.411   1_554  A
C919        S923   1.799       .  S
C920       C1121   1.403       .  A
C921       C1120   1.403       .  A
C921        C922   1.399       .  A
C921        H928   1.084       .  S
C922        S924   1.803       .  S
S923        H926   1.407       .  S
S924        H925   1.407       .  S
C929        C930   1.403       .  A
C929        C934   1.415   1_655  A
C930        H939   1.083       .  S
C931        C932   1.414       .  A
C931        S935   1.803       .  S
C932        C933   1.404   1_545  A
C933        H940   1.084       .  S
C934        S936   1.803       .  S
S935        H938   1.407       .  S
S936        H937   1.407   1_455  S
C941        C942   1.404       .  A
C941        C946   1.417       .  A
C942        C943   1.396       .  A
C942        H951   1.083       .  S
C943        C944   1.414       .  A
C943        S947   1.804       .  S
C944        C945   1.403       .  A
C945        C946   1.399       .  A
C945        H952   1.083       .  S
C946        S948   1.803       .  S
S947        H950   1.407       .  S
S948        H949   1.407       .  S
C953        C954   1.403       .  A
C953        C958   1.413       .  A
C954        C955   1.399       .  A
C954        H963   1.083       .  S
C955        C956   1.415       .  A
C955        S959   1.803       .  S
C956        C957   1.403       .  A
C957        C958   1.395       .  A
C957        H964   1.084   1_655  S
C958        S960   1.804   1_655  S
S959        H962   1.408       .  S
S960        H961   1.407   1_455  S
C965        C966   1.403       .  A
C965       C1170   1.412       .  A
C966        C967   1.401       .  A
C966        H975   1.085       .  S
C967        C968   1.412       .  A
C967        S971   1.803       .  S
C968       C1169   1.400       .  A
C969       C1168   1.402   1_554  A
C969        C970   1.397       .  A
C969        H976   1.086       .  S
C970       C1165   1.412   1_554  A
C970        S972   1.800       .  S
S971        H974   1.406       .  S
S972        H973   1.407       .  S
C977        C978   1.402       .  A
C977       C1182   1.413   1_554  A
C978        C979   1.398       .  A
C978        H987   1.084       .  S
C979        C980   1.412       .  A
C979        S983   1.801       .  S
C980       C1181   1.403   1_554  A
C981       C1180   1.403       .  A
C981        C982   1.401       .  A
C981        H988   1.084       .  S
C982       C1177   1.414       .  A
C982        S984   1.803       .  S
S983        H986   1.407       .  S
S984        H985   1.407       .  S
C989        C990   1.404       .  A
C989       C1194   1.414       .  A
C990        C991   1.402       .  A
C990        H999   1.084       .  S
C991        C992   1.415       .  A
C991        S995   1.800       .  S
C992       C1193   1.402       .  A
C993       C1192   1.403       .  A
C993        C994   1.396       .  A
C993       H1000   1.084       .  S
C994       C1189   1.414       .  A
C994        S996   1.804       .  S
S995        H998   1.407       .  S
S996        H997   1.407       .  S
C1001      N1002   1.360       .  A
C1001      N1006   1.360       .  A
C1001      C1180   1.478       .  S
C1003      N1004   1.356   1_554  A
C1003      C1165   1.476   1_554  S
N1004      C1005   1.358   1_556  A
C1005      C1189   1.477       .  S
C1007      N1008   1.359       .  A
C1007      N1012   1.357       .  A
C1007      C1144   1.476       .  S
N1008      C1009   1.359       .  A
C1009      N1010   1.356       .  A
C1009      C1153   1.475       .  S
N1010      C1011   1.354       .  A
C1011      N1012   1.356       .  A
C1011      C1129   1.478       .  S
C1013      N1014   1.358       .  A
C1013      N1018   1.357       .  A
C1013      C1108   1.473       .  S
N1014      C1015   1.359       .  A
C1015      N1016   1.360       .  A
C1015      C1117   1.477       .  S
N1016      C1017   1.358       .  A
C1017      N1018   1.357       .  A
C1017      C1168   1.474       .  S
O1019     Ni1027   1.917       .  S
O1019      C1029   1.280       .  A
O1020     Ni1027   1.916       .  S
O1020      C1030   1.280       .  A
O1021     Ni1027   1.911       .  S
O1021      C1031   1.279       .  A
O1022     Ni1027   1.910       .  S
O1022      C1432   1.280       .  A
O1023     Ni1028   1.916       .  S
O1023      C1032   1.281       .  A
O1024     Ni1028   1.913       .  S
O1024      C1431   1.282   1_545  A
O1025     Ni1028   1.916       .  S
O1025      C1430   1.279   1_545  A
O1026     Ni1028   1.913       .  S
O1026      C1429   1.279   1_545  A
Ni1027    Ni1428   2.392       .  S
Ni1028    Ni1427   2.391   1_545  S
C1029      C1045   1.455       .  S
C1029      O1426   1.279       .  A
C1030      C1046   1.456       .  S
C1030      O1425   1.279       .  A
C1031      C1141   1.478       .  S
C1031      O1424   1.282       .  A
C1032      C1093   1.476       .  S
C1032      O1422   1.281   1_545  A
O1033     Ni1241   1.918       .  S
O1034     Ni1041   1.914       .  S
O1034      C1044   1.282       .  A
O1035     Ni1041   1.917   1_556  S
O1035      C1445   1.280   1_545  A
O1036      C1446   1.279   1_545  A
O1037      C1046   1.280       .  A
O1038     Ni1042   1.914       .  S
O1038      C1045   1.279       .  A
O1039     Ni1242   1.917   1_545  S
O1040     Ni1042   1.915       .  S
O1040      C1043   1.281       .  A
Ni1041     O1233   1.914   1_545  S
Ni1041    Ni1442   2.392   1_545  S
Ni1042     O1239   1.919   1_556  S
Ni1042    Ni1441   2.391       .  S
C1043      C1105   1.473       .  S
C1044      C1192   1.479       .  S
C1045      O1435   1.280       .  A
C1046      O1436   1.279       .  A
C1047      N1048   1.357       .  A
C1047      N1052   1.360       .  A
C1047      C1081   1.478       .  S
N1048      C1049   1.353       .  A
C1049      N1050   1.354       .  A
C1049      C1132   1.475       .  S
N1050      C1051   1.357       .  A
C1051      N1052   1.360       .  A
C1051      C1096   1.477       .  S
O1053     Ni1061   1.915       .  S
O1054     Ni1061   1.915       .  S
O1055     Ni1061   1.913       .  S
O1055      C1065   1.280       .  A
O1056     Ni1061   1.910       .  S
O1057     Ni1062   1.913       .  S
O1057      C1066   1.280       .  A
O1058     Ni1062   1.913       .  S
O1059     Ni1062   1.917       .  S
O1059      C1064   1.280       .  A
O1060     Ni1062   1.918       .  S
O1060      C1063   1.280       .  A
C1063      C1079   1.457       .  S
C1064      C1080   1.456       .  S
C1065      C1156   1.477       .  S
C1066      C1084   1.475       .  S
O1068     Ni1075   1.917       .  S
O1068      C1078   1.281       .  A
O1069     Ni1075   1.922       .  S
O1069      C1079   1.281       .  A
O1070      C1080   1.279       .  A
O1072     Ni1076   1.911       .  S
O1074     Ni1076   1.916       .  S
O1074      C1077   1.281       .  A
C1077      C1177   1.475       .  S
C1078      C1120   1.475       .  S
C1081      C1082   1.404       .  A
C1081      C1086   1.414       .  A
C1082      C1083   1.393       .  A
C1082      H1091   1.083       .  S
C1083      C1084   1.412       .  A
C1083      S1087   1.805       .  S
C1084      C1085   1.405       .  A
C1085      C1086   1.401       .  A
C1085      H1092   1.084       .  S
C1086      S1088   1.802       .  S
S1087      H1090   1.407       .  S
S1088      H1089   1.407       .  S
C1093      C1094   1.402       .  A
C1093      C1098   1.415       .  A
C1094      C1095   1.395       .  A
C1094      H1103   1.084   1_545  S
C1095      C1096   1.415       .  A
C1095      S1099   1.804       .  S
C1096      C1097   1.404       .  A
C1097      C1098   1.401       .  A
C1097      H1104   1.084       .  S
C1098      S1100   1.803       .  S
S1099      H1102   1.407       .  S
S1100      H1101   1.407       .  S
C1105      C1106   1.402       .  A
C1106      C1107   1.397       .  A
C1106      H1115   1.084       .  S
C1107      C1108   1.412       .  A
C1107      S1111   1.804       .  S
C1109      C1110   1.403       .  A
C1109      H1116   1.084       .  S
C1110      S1112   1.799       .  S
S1111      H1114   1.407       .  S
S1112      H1113   1.407       .  S
C1117      C1122   1.413       .  A
C1118      C1119   1.399       .  A
C1118      H1127   1.084       .  S
C1119      C1120   1.411       .  A
C1119      S1123   1.799       .  S
C1121      C1122   1.398       .  A
C1121      H1128   1.084       .  S
C1122      S1124   1.802       .  S
S1123      H1126   1.407       .  S
S1124      H1125   1.407       .  S
C1129      C1130   1.403       .  A
C1129      C1134   1.415   1_655  A
C1130      H1139   1.083       .  S
C1131      C1132   1.414       .  A
C1131      S1135   1.803       .  S
C1132      C1133   1.403   1_545  A
C1133      H1140   1.084       .  S
C1134      S1136   1.803       .  S
S1135      H1138   1.407       .  S
S1136      H1137   1.407   1_455  S
C1141      C1142   1.403       .  A
C1141      C1146   1.416       .  A
C1142      C1143   1.395       .  A
C1142      H1151   1.083       .  S
C1143      C1144   1.413       .  A
C1143      S1147   1.804       .  S
C1144      C1145   1.403       .  A
C1145      C1146   1.400       .  A
C1145      H1152   1.083       .  S
C1146      S1148   1.803       .  S
S1147      H1150   1.407       .  S
S1148      H1149   1.407       .  S
C1153      C1154   1.403       .  A
C1153      C1158   1.414       .  A
C1154      C1155   1.399       .  A
C1154      H1163   1.083       .  S
C1155      C1156   1.415       .  A
C1155      S1159   1.803       .  S
C1156      C1157   1.403       .  A
C1157      C1158   1.396       .  A
C1157      H1164   1.084   1_655  S
C1158      S1160   1.804   1_655  S
S1159      H1162   1.408       .  S
S1160      H1161   1.407   1_455  S
C1165      C1166   1.404       .  A
C1166      C1167   1.401       .  A
C1166      H1175   1.085       .  S
C1167      C1168   1.413       .  A
C1167      S1171   1.801       .  S
C1169      C1170   1.396       .  A
C1169      H1176   1.086       .  S
C1170      S1172   1.800       .  S
S1171      H1174   1.406       .  S
S1172      H1173   1.406       .  S
C1177      C1178   1.401       .  A
C1178      C1179   1.397       .  A
C1178      H1187   1.084       .  S
C1179      C1180   1.413       .  A
C1179      S1183   1.799       .  S
C1181      C1182   1.401       .  A
C1181      H1188   1.084       .  S
C1182      S1184   1.803       .  S
S1183      H1186   1.407       .  S
S1184      H1185   1.406       .  S
C1189      C1190   1.404   1_554  A
C1190      C1191   1.401       .  A
C1190      H1199   1.084       .  S
C1191      C1192   1.414   1_556  A
C1191      S1195   1.799       .  S
C1193      C1194   1.396       .  A
C1193      H1200   1.084       .  S
C1194      S1196   1.804       .  S
S1195      H1198   1.407       .  S
S1196      H1197   1.407       .  S
C1201      N1202   1.361       .  A
C1201      N1206   1.360       .  A
C1201      C1380   1.478       .  S
N1202      C1403   1.360       .  A
C1203      N1402   1.358       .  A
C1203      N1204   1.355       .  A
C1203      C1365   1.476       .  S
N1204      C1205   1.357       .  A
C1205      N1406   1.362       .  A
C1205      C1389   1.488       .  S
N1206      C1405   1.360       .  A
C1207      N1208   1.361       .  A
C1207      N1212   1.356       .  A
C1207      C1344   1.480       .  S
N1208      C1209   1.361       .  A
C1209      N1210   1.356       .  A
C1209      C1353   1.476       .  S
N1210      C1211   1.353       .  A
C1211      N1212   1.355       .  A
C1211      C1329   1.475       .  S
C1213      N1214   1.359       .  A
C1213      N1218   1.355       .  A
C1213      C1308   1.473       .  S
N1214      C1215   1.361       .  A
C1215      N1216   1.361       .  A
C1215      C1317   1.478       .  S
N1216      C1217   1.359       .  A
C1217      N1218   1.354       .  A
C1217      C1368   1.473       .  S
O1219     Ni1227   1.916       .  S
O1219      C1229   1.280       .  A
O1220     Ni1227   1.915       .  S
O1220      C1230   1.279       .  A
O1221     Ni1227   1.912       .  S
O1221      C1231   1.280       .  A
O1222     Ni1227   1.911       .  S
O1223     Ni1228   1.916       .  S
O1223      C1232   1.281       .  A
O1224     Ni1228   1.916       .  S
O1225     Ni1228   1.913       .  S
O1226     Ni1228   1.913       .  S
C1229      C1245   1.454       .  S
C1230      C1246   1.456       .  S
C1231      C1341   1.480       .  S
C1232      C1293   1.475       .  S
O1233      C1443   1.280       .  A
O1234     Ni1241   1.918       .  S
O1234      C1244   1.283       .  A
O1235     Ni1241   1.916       .  S
O1236     Ni1441   1.914   1_554  S
O1237     Ni1442   1.918       .  S
O1237      C1246   1.280       .  A
O1238     Ni1242   1.914       .  S
O1238      C1245   1.279       .  A
O1239      C1444   1.280       .  A
O1240     Ni1242   1.914       .  S
O1240      C1243   1.281       .  A
Ni1241     O1436   1.915       .  S
Ni1242     O1437   1.919       .  S
C1243      C1305   1.472       .  S
C1243      O1433   1.280       .  A
C1244      C1392   1.491       .  S
C1244      O1439   1.280       .  A
C1247      N1248   1.357       .  A
C1247      N1252   1.359       .  A
C1247      C1281   1.477       .  S
N1248      C1249   1.355       .  A
C1249      N1250   1.355       .  A
C1249      C1332   1.475       .  S
N1250      C1251   1.357       .  A
C1251      N1252   1.359       .  A
C1251      C1296   1.476       .  S
O1253     Ni1261   1.915       .  S
O1254     Ni1261   1.917       .  S
O1255     Ni1261   1.912       .  S
O1255      C1265   1.280       .  A
O1256     Ni1261   1.909       .  S
O1257     Ni1262   1.916       .  S
O1257      C1266   1.281       .  A
O1258     Ni1262   1.917       .  S
O1259     Ni1262   1.916       .  S
O1259      C1264   1.280       .  A
O1260     Ni1262   1.915       .  S
O1260      C1263   1.279       .  A
C1263      C1279   1.455       .  S
C1264      C1280   1.457       .  S
C1265      C1356   1.478       .  S
C1266      C1284   1.475       .  S
O1267      C1477   1.280       .  A
O1268     Ni1275   1.917   1_556  S
O1268      C1278   1.281       .  A
O1269     Ni1275   1.919       .  S
O1269      C1279   1.281       .  A
O1270     Ni1475   1.918       .  S
O1270      C1280   1.280       .  A
O1271     Ni1476   1.914       .  S
O1272     Ni1276   1.911       .  S
O1273      C1478   1.281       .  A
O1274     Ni1276   1.916       .  S
O1274      C1277   1.281       .  A
Ni1275     O1470   1.914   1_554  S
Ni1276     O1471   1.916   1_554  S
C1277      C1377   1.474       .  S
C1277      O1467   1.281       .  A
C1278      C1320   1.473       .  S
C1278      O1473   1.280   1_556  A
C1281      C1282   1.403       .  A
C1281      C1286   1.414       .  A
C1282      C1283   1.394       .  A
C1282      H1291   1.083       .  S
C1283      C1284   1.413       .  A
C1283      S1287   1.804       .  S
C1284      C1285   1.405       .  A
C1285      C1286   1.400       .  A
C1285      H1292   1.084       .  S
C1286      S1288   1.803       .  S
S1287      H1290   1.407       .  S
S1288      H1289   1.407       .  S
C1293      C1294   1.402       .  A
C1293      C1298   1.414       .  A
C1294      C1295   1.396       .  A
C1294      H1303   1.085       .  S
C1295      C1296   1.415       .  A
C1295      S1299   1.804       .  S
C1296      C1297   1.404       .  A
C1297      C1298   1.399       .  A
C1297      H1304   1.085       .  S
C1298      S1300   1.803       .  S
S1299      H1302   1.407       .  S
S1300      H1301   1.407       .  S
C1305      C1306   1.401       .  A
C1305      C1510   1.412       .  A
C1306      C1307   1.395       .  A
C1306      H1315   1.084       .  S
C1307      C1308   1.413       .  A
C1307      S1311   1.805       .  S
C1308      C1509   1.404       .  A
C1309      C1508   1.404   1_554  A
C1309      C1310   1.401       .  A
C1309      H1316   1.084       .  S
C1310      C1505   1.412       .  A
C1310      S1312   1.800       .  S
S1311      H1314   1.407       .  S
S1312      H1313   1.406       .  S
C1317      C1518   1.404       .  A
C1317      C1322   1.413       .  A
C1318      C1517   1.403   1_554  A
C1318      C1319   1.401       .  A
C1318      H1327   1.084       .  S
C1319      C1320   1.411   1_554  A
C1319      S1323   1.800       .  S
C1320      C1521   1.402       .  A
C1321      C1520   1.403       .  A
C1321      C1322   1.400       .  A
C1321      H1328   1.084       .  S
C1322      S1324   1.802       .  S
S1323      H1326   1.405       .  S
S1324      H1325   1.407       .  S
C1329      C1330   1.402       .  A
C1329      C1334   1.414   1_655  A
C1330      H1339   1.083   1_565  S
C1331      C1332   1.413       .  A
C1331      S1335   1.803       .  S
C1332      C1333   1.404       .  A
C1333      H1340   1.084       .  S
C1334      S1336   1.803       .  S
S1335      H1338   1.407       .  S
S1336      H1337   1.407   1_455  S
C1341      C1342   1.403       .  A
C1341      C1346   1.417       .  A
C1342      C1343   1.395       .  A
C1342      H1351   1.083   1_565  S
C1343      C1344   1.415       .  A
C1343      S1347   1.804       .  S
C1344      C1345   1.404       .  A
C1345      C1346   1.400       .  A
C1345      H1352   1.083       .  S
C1346      S1348   1.803       .  S
S1347      H1350   1.407       .  S
S1348      H1349   1.408       .  S
C1353      C1354   1.403       .  A
C1353      C1358   1.414       .  A
C1354      C1355   1.399       .  A
C1354      H1363   1.083       .  S
C1355      C1356   1.415       .  A
C1355      S1359   1.803       .  S
C1356      C1357   1.403       .  A
C1357      C1358   1.397       .  A
C1357      H1364   1.084   1_655  S
C1358      S1360   1.805   1_655  S
S1359      H1362   1.407       .  S
S1360      H1361   1.407   1_455  S
C1365      C1366   1.404       .  A
C1365      C1570   1.412       .  A
C1366      C1367   1.400       .  A
C1366      H1375   1.085       .  S
C1367      C1368   1.411       .  A
C1367      S1371   1.801       .  S
C1368      C1569   1.401       .  A
C1369      C1568   1.403   1_554  A
C1369      C1370   1.397       .  A
C1369      H1376   1.085       .  S
C1370      C1565   1.413       .  A
C1370      S1372   1.796       .  S
S1371      H1374   1.407       .  S
S1372      H1373   1.407       .  S
C1377      C1378   1.401       .  A
C1377      C1582   1.413   1_554  A
C1378      C1379   1.397       .  A
C1378      H1387   1.084       .  S
C1379      C1380   1.412       .  A
C1379      S1383   1.799       .  S
C1380      C1581   1.404   1_554  A
C1381      C1580   1.404       .  A
C1381      C1382   1.402       .  A
C1381      H1388   1.084       .  S
C1382      C1577   1.415       .  A
C1382      S1384   1.803       .  S
S1383      H1386   1.406       .  S
S1384      H1385   1.407       .  S
C1389      C1390   1.405       .  A
C1389      C1594   1.418       .  A
C1390      C1391   1.402       .  A
C1390      H1399   1.083       .  S
C1391      C1392   1.419       .  A
C1391      S1395   1.799       .  S
C1392      C1593   1.405       .  A
C1393      C1592   1.404       .  A
C1393      C1394   1.397       .  A
C1393      H1400   1.084       .  S
C1394      C1589   1.416       .  A
C1394      S1396   1.804       .  S
S1395      H1398   1.408       .  S
S1396      H1397   1.408       .  S
C1401      N1402   1.360       .  A
C1401      N1406   1.361       .  A
C1401      C1580   1.480       .  S
C1403      N1404   1.356       .  A
C1403      C1565   1.484       .  S
N1404      C1405   1.357       .  A
C1405      C1589   1.485       .  S
C1407      N1408   1.359       .  A
C1407      N1412   1.357       .  A
C1407      C1544   1.478       .  S
N1408      C1409   1.359       .  A
C1409      N1410   1.355       .  A
C1409      C1553   1.473       .  S
N1410      C1411   1.354       .  A
C1411      N1412   1.356       .  A
C1411      C1529   1.476       .  S
C1413      N1414   1.358       .  A
C1413      N1418   1.356       .  A
C1413      C1508   1.475       .  S
N1414      C1415   1.359       .  A
C1415      N1416   1.360       .  A
C1415      C1517   1.473       .  S
N1416      C1417   1.359       .  A
C1417      N1418   1.357       .  A
C1417      C1568   1.482       .  S
O1419     Ni1427   1.920       .  S
O1419      C1429   1.280       .  A
O1420     Ni1427   1.918       .  S
O1420      C1430   1.280       .  A
O1421     Ni1427   1.913       .  S
O1421      C1431   1.280       .  A
O1422     Ni1427   1.913       .  S
O1423     Ni1428   1.917       .  S
O1423      C1432   1.281       .  A
O1424     Ni1428   1.915       .  S
O1425     Ni1428   1.915       .  S
O1426     Ni1428   1.914       .  S
C1429      C1445   1.457       .  S
C1430      C1446   1.457       .  S
C1431      C1541   1.479       .  S
C1432      C1493   1.474       .  S
O1434     Ni1441   1.917   1_554  S
O1434      C1444   1.283       .  A
O1435     Ni1441   1.916       .  S
O1437      C1446   1.281       .  A
O1438     Ni1442   1.915   1_556  S
O1438      C1445   1.279       .  A
O1440     Ni1442   1.915       .  S
O1440      C1443   1.281       .  A
C1443      C1505   1.473       .  S
C1444      C1592   1.487       .  S
C1447      N1448   1.356       .  A
C1447      N1452   1.358       .  A
C1447      C1481   1.473       .  S
N1448      C1449   1.354       .  A
C1449      N1450   1.356       .  A
C1449      C1532   1.477       .  S
N1450      C1451   1.358       .  A
C1451      N1452   1.358       .  A
C1451      C1496   1.475       .  S
O1453     Ni1461   1.917       .  S
O1454     Ni1461   1.917       .  S
O1455     Ni1461   1.910       .  S
O1455      C1465   1.280       .  A
O1456     Ni1461   1.907       .  S
O1457     Ni1462   1.910       .  S
O1457      C1466   1.280       .  A
O1458     Ni1462   1.912       .  S
O1459     Ni1462   1.914       .  S
O1459      C1464   1.279       .  A
O1460     Ni1462   1.916       .  S
O1460      C1463   1.279       .  A
C1463      C1479   1.458       .  S
C1464      C1480   1.455       .  S
C1465      C1556   1.474       .  S
C1466      C1484   1.470       .  S
O1468     Ni1475   1.917       .  S
O1468      C1478   1.281       .  A
O1469     Ni1475   1.923       .  S
O1469      C1479   1.282       .  A
O1470      C1480   1.279       .  A
O1472     Ni1476   1.911       .  S
O1474     Ni1476   1.918       .  S
O1474      C1477   1.282       .  A
C1477      C1577   1.476       .  S
C1478      C1520   1.476       .  S
C1481      C1482   1.403       .  A
C1481      C1486   1.413       .  A
C1482      C1483   1.392       .  A
C1482      H1491   1.083       .  S
C1483      C1484   1.412       .  A
C1483      S1487   1.805       .  S
C1484      C1485   1.404       .  A
C1485      C1486   1.398       .  A
C1485      H1492   1.085       .  S
C1486      S1488   1.803       .  S
S1487      H1490   1.407       .  S
S1488      H1489   1.407       .  S
C1493      C1494   1.402       .  A
C1493      C1498   1.414       .  A
C1494      C1495   1.395       .  A
C1494      H1503   1.085       .  S
C1495      C1496   1.414       .  A
C1495      S1499   1.804       .  S
C1496      C1497   1.404       .  A
C1497      C1498   1.400       .  A
C1497      H1504   1.085       .  S
C1498      S1500   1.803       .  S
S1499      H1502   1.407       .  S
S1500      H1501   1.407       .  S
C1505      C1506   1.401   1_554  A
C1506      C1507   1.396       .  A
C1506      H1515   1.084       .  S
C1507      C1508   1.413       .  A
C1507      S1511   1.804       .  S
C1509      C1510   1.402       .  A
C1509      H1516   1.084       .  S
C1510      S1512   1.799       .  S
S1511      H1514   1.407       .  S
S1512      H1513   1.406       .  S
C1517      C1522   1.412       .  A
C1518      C1519   1.401       .  A
C1518      H1527   1.084       .  S
C1519      C1520   1.411       .  A
C1519      S1523   1.799       .  S
C1521      C1522   1.399       .  A
C1521      H1528   1.084       .  S
C1522      S1524   1.802       .  S
S1523      H1526   1.406       .  S
S1524      H1525   1.407       .  S
C1529      C1530   1.403   1_565  A
C1529      C1534   1.415   1_655  A
C1530      H1539   1.083       .  S
C1531      C1532   1.415       .  A
C1531      S1535   1.803       .  S
C1532      C1533   1.404       .  A
C1533      H1540   1.084       .  S
C1534      S1536   1.803       .  S
S1535      H1538   1.407       .  S
S1536      H1537   1.407   1_455  S
C1541      C1542   1.404       .  A
C1541      C1546   1.416       .  A
C1542      C1543   1.395       .  A
C1542      H1551   1.083   1_565  S
C1543      C1544   1.414       .  A
C1543      S1547   1.804       .  S
C1544      C1545   1.404       .  A
C1545      C1546   1.400       .  A
C1545      H1552   1.083       .  S
C1546      S1548   1.803       .  S
S1547      H1550   1.407       .  S
S1548      H1549   1.407       .  S
C1553      C1554   1.403       .  A
C1553      C1558   1.414       .  A
C1554      C1555   1.398       .  A
C1554      H1563   1.083       .  S
C1555      C1556   1.414       .  A
C1555      S1559   1.803       .  S
C1556      C1557   1.402       .  A
C1557      C1558   1.395       .  A
C1557      H1564   1.084   1_655  S
C1558      S1560   1.804   1_655  S
S1559      H1562   1.408       .  S
S1560      H1561   1.407   1_455  S
C1565      C1566   1.406   1_554  A
C1566      C1567   1.401       .  A
C1566      H1575   1.085       .  S
C1567      C1568   1.414       .  A
C1567      S1571   1.799       .  S
C1569      C1570   1.396       .  A
C1569      H1576   1.086       .  S
C1570      S1572   1.798       .  S
S1571      H1574   1.407       .  S
S1572      H1573   1.407       .  S
C1577      C1578   1.401       .  A
C1578      C1579   1.397       .  A
C1578      H1587   1.084       .  S
C1579      C1580   1.413       .  A
C1579      S1583   1.799       .  S
C1581      C1582   1.402       .  A
C1581      H1588   1.084       .  S
C1582      S1584   1.803       .  S
S1583      H1586   1.407       .  S
S1584      H1585   1.406       .  S
C1589      C1590   1.405   1_554  A
C1590      C1591   1.402       .  A
C1590      H1599   1.083       .  S
C1591      C1592   1.417   1_556  A
C1591      S1595   1.799       .  S
C1593      C1594   1.397       .  A
C1593      H1600   1.083       .  S
C1594      S1596   1.804       .  S
S1595      H1598   1.408   1_556  S
S1596      H1597   1.408       .  S
