geometry optimzed in LAMMPS
_audit_creation_date              2020-11-30 
_audit_creation_method            'lammps2cif' 
_symmetry_space_group_name_H-M    'P1' 
_symmetry_Int_Tables_number       1 
_symmetry_cell_setting            triclinic 
loop_ 
_symmetry_equiv_pos_as_xyz 
  x,y,z 
_cell_length_a                    30.710515467473343 
_cell_length_b                    27.219066689440513 
_cell_length_c                    55.41262261938427 
_cell_angle_alpha                 90.68672951159256 
_cell_angle_beta                  90.70399238841443 
_cell_angle_gamma                 90.46921449211595 
loop_ 
_atom_site_label 
_atom_site_type_symbol 
_atom_site_fract_x 
_atom_site_fract_y 
_atom_site_fract_z 
_atom_site_charge 
O1          O  0.89576964  0.43512200  0.80342452    -0.74820
O2          O  0.93366243  0.37363412  0.78518320    -0.53730
C3          C  0.90110577  0.39010420  0.79734080     0.78910
O4          O  0.90594626  0.59903710  0.71593718    -0.59420
O5          O  0.94441689  0.65773850  0.73726329    -0.52450
C6          C  0.91635719  0.64388240  0.72092238     0.70930
O7          O  0.90017944  0.43486503  0.71644774    -0.73980
O8          O  0.94149309  0.37584921  0.73438893    -0.54540
C9          C  0.91076633  0.38986214  0.72010149     0.76930
O10         O  0.90871871  0.59455524  0.81131571    -0.59120
O11         O  0.94355021  0.65831089  0.79393661    -0.52240
C12         C  0.91521226  0.64050499  0.80859828     0.73520
Zr13       Zr  0.92973296  0.51401762  0.79970133     2.54710
O14         O  0.85205286  0.52047784  0.80716432    -0.79690
O15         O  0.94135724  0.50509847  0.84296289    -0.93100
Zr16       Zr  0.92517604  0.51698846  0.72867995     2.64680
O17         O  0.84615250  0.52031001  0.73138252    -0.98060
O18         O  0.92562700  0.51607809  0.68472562    -0.80120
O19         O  0.92594687  0.46792837  0.76346813    -0.83480
O20         O  0.92657362  0.56406723  0.76499601    -2.18190
O21         O  0.08550348  0.59422536  0.80784144    -0.66870
O22         O  0.04750937  0.65648100  0.79030124    -0.51430
C23         C  0.07942126  0.63961622  0.80307057     0.71900
O24         O  0.07727111  0.43621503  0.71668892    -0.59770
O25         O  0.03919373  0.37624051  0.73571248    -0.51750
C26         C  0.06892032  0.39099789  0.72116760     0.73710
O27         O  0.07361487  0.59935522  0.71653227    -0.71170
O28         O  0.04003244  0.65812534  0.73902699    -0.49850
C29         C  0.06677925  0.64436955  0.72253160     0.75090
O30         O  0.08392169  0.43316997  0.80523487    -0.66500
O31         O  0.04307580  0.37319101  0.78636680    -0.53700
C32         C  0.07564891  0.38833053  0.79945318     0.73470
Zr33       Zr  0.05444950  0.51404121  0.79972530     2.77540
O34         O  0.13213181  0.50784186  0.80859274    -0.97250
O35         O  0.04028637  0.51356057  0.84284216    -0.78070
Zr36       Zr  0.05233675  0.51705881  0.72829576     2.70070
O37         O  0.13148138  0.51773496  0.73047969    -0.79320
O38         O  0.04821094  0.51526570  0.68439566    -0.98400
Zr39       Zr  0.98956642  0.41872828  0.76264659     2.21500
Zr40       Zr  0.99139882  0.61361233  0.76572051     2.11130
O41         O  0.05468587  0.56294680  0.76455613    -2.47090
O42         O  0.05373865  0.46822003  0.76320694    -0.79110
O43         O  0.99247258  0.56462137  0.80139354    -0.71310
O44         O  0.98853062  0.46803070  0.72714347    -2.32260
O45         O  0.99161023  0.46339163  0.80006310    -2.28470
O46         O  0.98922111  0.56618525  0.72898354    -0.73060
H47         H  0.90109961  0.58461460  0.76541454     0.78930
H48         H  0.98821640  0.44774399  0.71271968     0.80020
H49         H  0.08090350  0.58245979  0.76398016     0.82250
H50         H  0.99168287  0.44160669  0.81370210     0.79850
H51         H  0.94926069  0.49327251  0.68031899     0.42890
H52         H  0.02929204  0.54324832  0.68018010     0.41860
H53         H  0.13844511  0.51172934  0.74767991     0.41540
H54         H  0.14652583  0.52611673  0.79554153     0.39470
H55         H  0.03870757  0.54871712  0.84752137     0.42600
H56         H  0.93473202  0.47012682  0.84614030     0.37390
H57         H  0.83925438  0.52956026  0.79136337     0.43500
H58         H  0.84020411  0.54837224  0.74234272     0.39920
H59         H  0.13743245  0.52787286  0.82338843     0.44840
H60         H  0.91702899  0.52325870  0.85038329     0.43560
H61         H  0.83632252  0.53150606  0.71529031     0.43700
H62         H  0.07764090  0.52545984  0.67921190     0.44050
C63         C  0.75845425  0.29384203  0.84331171     0.03600
C64         C  0.73378280  0.32413139  0.85872876    -0.12550
C65         C  0.69247190  0.30896177  0.86670702     0.01100
C66         C  0.67601374  0.26319114  0.85852852    -0.11070
C67         C  0.70001670  0.23336351  0.84270477     0.03600
C68         C  0.74159436  0.24827349  0.83572013    -0.10490
H69         H  0.74583603  0.36056914  0.86343591     0.09190
H70         H  0.64334082  0.25189060  0.86329509     0.06720
H71         H  0.75882504  0.22686895  0.82230443     0.06570
O72         O  0.56112172  0.10425785  0.78962222    -0.74820
O73         O  0.61427362  0.05911471  0.77173860    -0.53730
C74         C  0.60112136  0.09431040  0.78555301     0.78910
O75         O  0.41303492  0.91088859  0.78685438    -0.59420
O76         O  0.36197782  0.95450610  0.76609812    -0.52450
C77         C  0.37364555  0.92296287  0.78206096     0.70930
O78         O  0.55668489  0.89988041  0.78600510    -0.73980
O79         O  0.61160121  0.94289701  0.76846521    -0.54540
C80         C  0.59697941  0.90763585  0.78149305     0.76930
O81         O  0.41740803  0.10061258  0.78783715    -0.59120
O82         O  0.36424763  0.06283249  0.76511634    -0.52240
C83         C  0.37756848  0.09392909  0.78145423     0.73520
Zr84       Zr  0.48945681  0.07502219  0.77794954     2.54710
O85         O  0.48902262  0.06825725  0.82170743    -0.79690
O86         O  0.48548218  0.16429562  0.78003437    -0.93100
Zr87       Zr  0.48619547  0.93092866  0.77510771     2.64680
O88         O  0.48884374  0.93041969  0.81904258    -0.98060
O89         O  0.47770753  0.84202146  0.77287307    -0.80120
O90         O  0.53068355  0.00212407  0.77943064    -0.83480
O91         O  0.44525889  0.00383536  0.77631549    -2.18190
O92         O  0.42115654  0.11332697  0.69632716    -0.66870
O93         O  0.36925522  0.06459281  0.71340493    -0.51430
C94         C  0.38128357  0.10068348  0.70011527     0.71900
O95         O  0.56703176  0.91541105  0.69144136    -0.59770
O96         O  0.61536148  0.95555877  0.71637050    -0.51750
C97         C  0.60616887  0.92682510  0.69844877     0.73710
O98         O  0.41959943  0.90307667  0.69179636    -0.71170
O99         O  0.36812327  0.94834224  0.71146284    -0.49850
C100        C  0.37990347  0.91413118  0.69659577     0.75090
O101        O  0.56812938  0.10102661  0.69622790    -0.66500
O102        O  0.61571025  0.05767364  0.71933665    -0.53700
C103        C  0.60696927  0.08950364  0.70309528     0.73470
Zr104      Zr  0.49289468  0.07934137  0.70648120     2.77540
O105        O  0.49191776  0.07382957  0.66257400    -0.97250
O106        O  0.49935742  0.16852278  0.70739436    -0.78070
Zr107      Zr  0.49177849  0.93429170  0.70367822     2.70070
O108        O  0.48886148  0.94314825  0.66003479    -0.79320
O109        O  0.49910044  0.84530872  0.70191790    -0.98400
Zr110      Zr  0.57375692  0.00388325  0.74418268     2.21500
Zr111      Zr  0.40513133  0.00581019  0.73929930     2.11130
O112        O  0.44904654  0.00702992  0.70379089    -2.47090
O113        O  0.53493679  0.00661549  0.70657638    -0.79110
O114        O  0.44901283  0.07832480  0.74137018    -0.71310
O115        O  0.53085993  0.93074801  0.74062184    -2.32260
O116        O  0.53298818  0.07784204  0.74327639    -2.28470
O117        O  0.44648237  0.93199628  0.73827684    -0.73060
H118        H  0.42626776  0.00404648  0.79007667     0.78930
H119        H  0.54884727  0.90184377  0.74013461     0.80020
H120        H  0.43086883  0.00775860  0.68945143     0.82250
H121        H  0.55183331  0.10631955  0.74391920     0.79850
H122        H  0.45858435  0.83596744  0.75861695     0.42890
H123        H  0.47778058  0.83283673  0.71365633     0.41860
H124        H  0.51157634  0.96802129  0.65657714     0.41540
H125        H  0.46161009  0.06449793  0.65814291     0.39470
H126        H  0.48250129  0.17883546  0.72167655     0.42600
H127        H  0.50508115  0.17582352  0.76719989     0.37390
H128        H  0.51111521  0.04303707  0.82536638     0.43500
H129        H  0.46533485  0.95285240  0.82409092     0.39920
H130        H  0.49491546  0.10828246  0.65726496     0.44840
H131        H  0.50047314  0.17372178  0.79533818     0.43560
H132        H  0.47820075  0.89728410  0.82338681     0.43700
H133        H  0.48689685  0.83553130  0.68593334     0.44050
C134        C  0.22540758  0.73204532  0.85007043     0.03600
C135        C  0.23948282  0.77674504  0.84083983    -0.12550
C136        C  0.28320240  0.79087549  0.84274864     0.01100
C137        C  0.31263234  0.76095737  0.85551182    -0.11070
C138        C  0.29847168  0.71738666  0.86667824     0.03600
C139        C  0.25451113  0.70295444  0.86342713    -0.10490
H140        H  0.21716670  0.79820695  0.83000009     0.09190
H141        H  0.34690644  0.77065149  0.85588587     0.06720
H142        H  0.24313063  0.66813254  0.87031535     0.06570
C143        C  0.76112614  0.72564349  0.84918130     0.03600
C144        C  0.74040618  0.75983990  0.83407713    -0.12550
C145        C  0.69726476  0.77350585  0.83778607     0.01100
C146        C  0.67267897  0.74962988  0.85527629    -0.11070
C147        C  0.69144261  0.71429769  0.87010078     0.03600
C148        C  0.73637049  0.70527944  0.86821658    -0.10490
H149        H  0.75665274  0.77482707  0.81858792     0.09190
H150        H  0.63825348  0.75745591  0.85677462     0.06720
H151        H  0.75103307  0.68144454  0.88137249     0.06570
C152        C  0.22312976  0.29242924  0.84025045     0.03600
C153        C  0.23934535  0.24813642  0.83136139    -0.12550
C154        C  0.28022182  0.23202354  0.83865427     0.01100
C155        C  0.30309122  0.25782154  0.85701895    -0.11070
C156        C  0.28926524  0.30460510  0.86523946     0.03600
C157        C  0.24884282  0.32169805  0.85617050    -0.10490
H158        H  0.22161167  0.22831088  0.81721660     0.09190
H159        H  0.33349921  0.24248210  0.86325360     0.06720
H160        H  0.23786435  0.35838665  0.86040860     0.06570
C161        C  0.22961772  0.19585388  0.65973160     0.03600
C162        C  0.20828075  0.23053317  0.67417508    -0.12550
C163        C  0.16665198  0.24675268  0.66775699     0.01100
C164        C  0.14635498  0.22895953  0.64660296    -0.11070
C165        C  0.16569119  0.19198117  0.63256653     0.03600
C166        C  0.20790109  0.17656690  0.63904783    -0.10490
H167        H  0.22329828  0.24363127  0.69087007     0.09190
H168        H  0.11496843  0.24359711  0.64144521     0.06720
H169        H  0.22347115  0.14815252  0.62849654     0.06570
C170        C  0.15590966  0.83991279  0.62865988     0.03600
C171        C  0.13333500  0.80833968  0.64410311    -0.12550
C172        C  0.15379477  0.79018914  0.66481713     0.01100
C173        C  0.19666778  0.80409318  0.67046113    -0.11070
C174        C  0.22055824  0.83435610  0.65501681     0.03600
C175        C  0.20031746  0.84985378  0.63340097    -0.10490
H176        H  0.09982504  0.79806375  0.64011183     0.09190
H177        H  0.21085416  0.79177340  0.68730210     0.06720
H178        H  0.21836913  0.87173285  0.62074862     0.06570
C179        C  0.75974778  0.17867896  0.66138238     0.03600
C180        C  0.78194326  0.21555773  0.67458039    -0.12550
C181        C  0.82005155  0.23710283  0.66558499     0.01100
C182        C  0.83514588  0.22198041  0.64293280    -0.11070
C183        C  0.81431113  0.18355969  0.63021792     0.03600
C184        C  0.77590172  0.16288838  0.63913265    -0.10490
H185        H  0.77002271  0.22651332  0.69215346     0.09190
H186        H  0.86438098  0.23841251  0.63568023     0.06720
H187        H  0.75981879  0.13302672  0.62933972     0.06570
C188        C  0.82299319  0.84529150  0.62988349     0.03600
C189        C  0.78374305  0.86471841  0.63815435    -0.12550
C190        C  0.76403239  0.84555790  0.65874065     0.01100
C191        C  0.78438363  0.80748050  0.67136276    -0.11070
C192        C  0.82341577  0.78678718  0.66301343     0.03600
C193        C  0.84185468  0.80540086  0.64178735    -0.10490
H194        H  0.76911081  0.89549939  0.62894247     0.09190
H195        H  0.77035985  0.79514897  0.68809854     0.06720
H196        H  0.87191362  0.79034050  0.63497636     0.06570
O197        O  0.57871632  0.60819562  0.94839946    -0.74820
O198        O  0.54444396  0.56354049  0.91842053    -0.53730
C199        C  0.57238487  0.59630081  0.92619726     0.78910
O200        O  0.58420380  0.42519340  0.02892021    -0.59420
O201        O  0.54247625  0.46414564  0.05712366    -0.52450
C202        C  0.57371251  0.43553854  0.05075575     0.70930
O203        O  0.58578062  0.42045159  0.94896736    -0.73980
O204        O  0.54712191  0.45711671  0.91881702    -0.54540
C205        C  0.57771153  0.42853625  0.92653208     0.76930
O206        O  0.57579270  0.61476781  0.02786396    -0.59120
O207        O  0.53925844  0.57365574  0.05686435    -0.52240
C208        C  0.56755195  0.60584639  0.05006844     0.73520
Zr209      Zr  0.55267392  0.58761187  0.98770625     2.54710
O210        O  0.63184195  0.59229099  0.98909927    -0.79690
O211        O  0.54365155  0.67637374  0.98628873    -0.93100
Zr212      Zr  0.55822228  0.44313787  0.98846737     2.64680
O213        O  0.63754952  0.44493390  0.98811213    -0.98060
O214        O  0.55327720  0.35385697  0.98974192    -0.80120
O215        O  0.55606514  0.51415903  0.96438634    -0.83480
O216        O  0.55651410  0.51687330  0.01166611    -2.18190
O217        O  0.40430620  0.61029376  0.02588882    -0.66870
O218        O  0.44204588  0.57170872  0.05562581    -0.51430
C219        C  0.41325619  0.60269794  0.04828034     0.71900
O220        O  0.40055732  0.41452888  0.94898565    -0.59770
O221        O  0.44039662  0.44988791  0.91903187    -0.51750
C222        C  0.40917367  0.42171959  0.92668168     0.73710
O223        O  0.40949086  0.41268011  0.02907629    -0.71170
O224        O  0.44372205  0.46133352  0.05746213    -0.49850
C225        C  0.41684137  0.42673538  0.05107859     0.75090
O226        O  0.40339641  0.60312522  0.94550201    -0.66500
O227        O  0.44267912  0.56265634  0.91675001    -0.53700
C228        C  0.41310463  0.59343081  0.92345518     0.73470
Zr229      Zr  0.42524588  0.58024257  0.98606818     2.77540
O230        O  0.34693846  0.56565740  0.98447028    -0.97250
O231        O  0.41957582  0.66929797  0.98451961    -0.78070
Zr232      Zr  0.43094171  0.43597396  0.98828819     2.70070
O233        O  0.35213150  0.42743174  0.99038251    -0.79320
O234        O  0.44311493  0.34774774  0.98667396    -0.98400
Zr235      Zr  0.49241244  0.50849835  0.93923934     2.21500
Zr236      Zr  0.49160096  0.51571357  0.03493514     2.11130
O237        O  0.42668308  0.51010412  0.01088593    -2.47090
O238        O  0.42820754  0.50626805  0.96330673    -0.79110
O239        O  0.48859785  0.58746913  0.01074401    -0.71310
O240        O  0.49441420  0.43671312  0.96399703    -2.32260
O241        O  0.48946754  0.58304679  0.96274848    -2.28470
O242        O  0.49481036  0.44033191  0.01249029    -0.73060
H243        H  0.58213050  0.51913748  0.02190330     0.78930
H244        H  0.49523997  0.40732968  0.95406485     0.80020
H245        H  0.40115675  0.50961629  0.02089174     0.82250
H246        H  0.48884905  0.61121988  0.95232501     0.79850
H247        H  0.54497056  0.34352014  0.97311276     0.42890
H248        H  0.45831652  0.34041681  0.00205920     0.41860
H249        H  0.34086703  0.45905122  0.98437319     0.41540
H250        H  0.33893051  0.55703182  0.00115025     0.39470
H251        H  0.44493289  0.68163862  0.99406454     0.42600
H252        H  0.52424181  0.68202892  0.97222073     0.37390
H253        H  0.64138485  0.55980146  0.98303898     0.43500
H254        H  0.64614106  0.46912021  0.00081428     0.39920
H255        H  0.33422994  0.59851943  0.98190399     0.44840
H256        H  0.57238985  0.68907517  0.98122996     0.43560
H257        H  0.64645327  0.41276272  0.99461738     0.43700
H258        H  0.41374627  0.33302719  0.98841001     0.44050
C259        C  0.29018399  0.77221155  0.14766499     0.03600
C260        C  0.31919371  0.75217166  0.13072735    -0.12550
C261        C  0.31088888  0.70547480  0.12031162     0.01100
C262        C  0.27351155  0.67895574  0.12686385    -0.11070
C263        C  0.24433488  0.69904183  0.14343653     0.03600
C264        C  0.25236008  0.74595206  0.15322324    -0.10490
H265        H  0.34896804  0.77168460  0.12648177     0.09190
H266        H  0.26799124  0.64213692  0.11973934     0.06720
H267        H  0.23036428  0.76066967  0.16661279     0.06570
C268        C  0.72659515  0.33042519  0.15426586     0.03600
C269        C  0.70466566  0.35105918  0.13459452    -0.12550
C270        C  0.66982659  0.32608958  0.12293981     0.01100
C271        C  0.65873292  0.27889776  0.13127729    -0.11070
C272        C  0.67770884  0.25994538  0.15257624     0.03600
C273        C  0.71261757  0.28546583  0.16354247    -0.10490
H274        H  0.71425462  0.38753435  0.12902259     0.09190
H275        H  0.63413768  0.25724207  0.12196244     0.06720
H276        H  0.72789237  0.27148271  0.17977063     0.06570
C277        C  0.73910265  0.70590255  0.14925140     0.03600
C278        C  0.71409390  0.68533480  0.13013535    -0.12550
C279        C  0.67300811  0.70419510  0.12428427     0.01100
C280        C  0.65771287  0.74553344  0.13673489    -0.11070
C281        C  0.68296440  0.76753176  0.15523158     0.03600
C282        C  0.72307169  0.74711845  0.16174933    -0.10490
H283        H  0.72566971  0.65326052  0.12046043     0.09190
H284        H  0.62572971  0.75983425  0.13245459     0.06720
H285        H  0.74071680  0.76205146  0.17725859     0.06570
O286        O  0.40616755  0.91232733  0.20106072    -0.74820
O287        O  0.35482006  0.95866602  0.22004658    -0.53730
C288        C  0.36670034  0.92376443  0.20562967     0.78910
O289        O  0.55752209  0.92212403  0.29295663    -0.59420
O290        O  0.60760241  0.96250457  0.27026539    -0.52450
C291        C  0.59685430  0.93119088  0.28633569     0.70930
O292        O  0.41119188  0.92384396  0.29550479    -0.73980
O293        O  0.35914402  0.96538711  0.27468977    -0.54540
C294        C  0.37126444  0.93461928  0.29093116     0.76930
O295        O  0.55011799  0.90622018  0.20277174    -0.59120
O296        O  0.60500322  0.95405798  0.21879856    -0.52240
C297        C  0.59050078  0.91615267  0.20687431     0.73520
Zr298      Zr  0.47908164  0.93933559  0.21121027     2.54710
O299        O  0.47502651  0.85001389  0.21120269    -0.79690
O300        O  0.48033488  0.94233480  0.16733167    -0.93100
Zr301      Zr  0.48364926  0.94782685  0.28242988     2.64680
O302        O  0.48099679  0.85850971  0.28441726    -0.98060
O303        O  0.48877981  0.95911922  0.32602958    -0.80120
O304        O  0.43862161  0.94276274  0.24730786    -0.83480
O305        O  0.52323485  0.94295005  0.24633897    -2.18190
O306        O  0.55241565  0.08887078  0.18979997    -0.66870
O307        O  0.60511665  0.07390477  0.21763534    -0.51430
C308        C  0.59092345  0.09547866  0.19854550     0.71900
O309        O  0.41366718  0.11807126  0.29188048    -0.59770
O310        O  0.36037394  0.07235579  0.27311460    -0.51750
C311        C  0.37354427  0.10597843  0.28810091     0.73710
O312        O  0.55884503  0.11586545  0.29073141    -0.71170
O313        O  0.60844192  0.06964045  0.27054735    -0.49850
C314        C  0.59810987  0.10332808  0.28589513     0.75090
O315        O  0.40953171  0.10973087  0.19700422    -0.66500
O316        O  0.35693788  0.07383503  0.21984324    -0.53700
C317        C  0.36995021  0.10383939  0.20346590     0.73470
Zr318      Zr  0.48130983  0.08241608  0.20782683     2.77540
O319        O  0.48761050  0.17170170  0.20935678    -0.97250
O320        O  0.47204475  0.08281656  0.16415156    -0.78070
Zr321      Zr  0.48520638  0.09179111  0.27893551     2.70070
O322        O  0.48656632  0.18090394  0.27580628    -0.79320
O323        O  0.48636541  0.09255194  0.32289022    -0.98400
Zr324      Zr  0.39687965  0.01631048  0.24571287     2.21500
Zr325      Zr  0.56728483  0.01526883  0.24356248     2.11130
O326        O  0.52575196  0.08895283  0.24282507    -2.47090
O327        O  0.44067197  0.08864253  0.24373618    -0.79110
O328        O  0.52348830  0.01018975  0.20783503    -0.71310
O329        O  0.44152548  0.02011081  0.28140391    -2.32260
O330        O  0.43681391  0.01137555  0.20915370    -2.28470
O331        O  0.52758088  0.01957679  0.28036844    -0.73060
H332        H  0.54091767  0.91394462  0.24713787     0.78930
H333        H  0.42396890  0.02184350  0.29572262     0.80020
H334        H  0.54438867  0.11761945  0.24203523     0.82250
H335        H  0.41753772  0.01015633  0.19524825     0.79850
H336        H  0.46674169  0.98427039  0.32987851     0.42890
H337        H  0.51140760  0.07172770  0.32738281     0.41860
H338        H  0.46759228  0.18785102  0.26170095     0.41540
H339        H  0.51831368  0.17889407  0.21382648     0.39470
H340        H  0.48291501  0.05040947  0.15873930     0.42600
H341        H  0.45153919  0.95544774  0.16258476     0.37390
H342        H  0.47699711  0.84127733  0.22847184     0.43500
H343        H  0.50561422  0.84718483  0.27447268     0.39920
H344        H  0.48464225  0.18203932  0.19235013     0.44840
H345        H  0.47926062  0.90744052  0.16208470     0.43560
H346        H  0.48983141  0.85102493  0.30121256     0.43700
H347        H  0.49565896  0.12635183  0.32746323     0.44050
O348        O  0.06958684  0.60894731  0.18859283    -0.74820
O349        O  0.11876349  0.56535905  0.21062569    -0.53730
C350        C  0.10882657  0.59650511  0.19427594     0.78910
O351        O  0.92711203  0.62246958  0.28308070    -0.59420
O352        O  0.87181319  0.58079583  0.26380205    -0.52450
C353        C  0.88670863  0.61540070  0.27781116     0.70930
O354        O  0.06979874  0.60477668  0.28903402    -0.73980
O355        O  0.12000096  0.56605551  0.26560040    -0.54540
C356        C  0.10898207  0.59464649  0.28320942     0.76930
O357        O  0.92239733  0.61549942  0.18940172    -0.59120
O358        O  0.87102271  0.57265353  0.21017161    -0.52240
C359        C  0.88266424  0.60413190  0.19432568     0.73520
Zr360      Zr  0.99540498  0.58963005  0.20181325     2.54710
O361        O  0.99899047  0.67895010  0.20402858    -0.79690
O362        O  0.99251782  0.58726089  0.15787078    -0.93100
Zr363      Zr  0.99744666  0.58912388  0.27346659     2.64680
O364        O  0.01178634  0.67708076  0.27205008    -0.98060
O365        O  0.99137499  0.59074599  0.31722414    -0.80120
O366        O  0.03890423  0.58959119  0.23761736    -0.83480
O367        O  0.95448414  0.59230111  0.23776486    -2.18190
O368        O  0.91424193  0.42124437  0.19063809    -0.66870
O369        O  0.86644026  0.46595697  0.21277943    -0.51430
C370        C  0.87531476  0.43250903  0.19704041     0.71900
O371        O  0.06381142  0.41373046  0.28126922    -0.59770
O372        O  0.11711770  0.45504355  0.26135849    -0.51750
C373        C  0.10375383  0.42171950  0.27578768     0.73710
O374        O  0.91881829  0.41910268  0.28327695    -0.71170
O375        O  0.86760896  0.46453578  0.26349274    -0.49850
C376        C  0.87933789  0.43003117  0.27787243     0.75090
O377        O  0.06163681  0.41914799  0.18764049    -0.66500
O378        O  0.11415674  0.45947367  0.20982616    -0.53700
C379        C  0.10173285  0.42873440  0.19325534     0.73470
Zr380      Zr  0.98946985  0.44434925  0.20131216     2.77540
O381        O  0.98926870  0.35521687  0.20440067    -0.97250
O382        O  0.98517544  0.44399631  0.15742537    -0.78070
Zr383      Zr  0.99175580  0.44502721  0.27290402     2.70070
O384        O  0.98781518  0.35586052  0.27512283    -0.79320
O385        O  0.99529842  0.45357539  0.31666022    -0.98400
Zr386      Zr  0.07740977  0.51410552  0.23747293     2.21500
Zr387      Zr  0.90931273  0.52069212  0.23831704     2.11130
O388        O  0.94900094  0.44598963  0.23728205    -2.47090
O389        O  0.03282031  0.44205664  0.23698420    -0.79110
O390        O  0.94971564  0.51875741  0.20167802    -0.71310
O391        O  0.03715568  0.51509846  0.27389638    -2.32260
O392        O  0.03464873  0.51527578  0.20117143    -2.28470
O393        O  0.95147372  0.51889789  0.27463721    -0.73060
H394        H  0.93724826  0.62176561  0.23756318     0.78930
H395        H  0.05601819  0.51337423  0.28792529     0.80020
H396        H  0.92968428  0.41796854  0.23710824     0.82250
H397        H  0.05278450  0.51440090  0.18706576     0.79850
H398        H  0.00966889  0.56318076  0.32274580     0.42890
H399        H  0.96851436  0.47154749  0.32092970     0.41860
H400        H  0.99405351  0.34433855  0.25851544     0.41540
H401        H  0.96039519  0.34660300  0.21096225     0.39470
H402        H  0.96763008  0.47324732  0.15347661     0.42600
H403        H  0.01541291  0.56376787  0.15312477     0.37390
H404        H  0.02540511  0.68629805  0.21388842     0.43500
H405        H  0.99390189  0.68880909  0.25834620     0.39920
H406        H  0.98822316  0.34321902  0.18746899     0.44840
H407        H  0.00388814  0.61973874  0.15296175     0.43560
H408        H  0.99769286  0.69065366  0.28661740     0.43700
H409        H  0.99031528  0.41986942  0.32261904     0.44050
C410        C  0.30998785  0.32618019  0.12186653     0.03600
C411        C  0.27091001  0.34938747  0.12833377    -0.12550
C412        C  0.24393205  0.32951939  0.14604957     0.01100
C413        C  0.25442878  0.28432572  0.15626436    -0.11070
C414        C  0.29291135  0.26007449  0.15023347     0.03600
C415        C  0.32104085  0.28169015  0.13326210    -0.10490
H416        H  0.26191045  0.38381169  0.12009813     0.09190
H417        H  0.23327735  0.26892228  0.16979591     0.06720
H418        H  0.35195000  0.26459407  0.12942752     0.06570
C419        C  0.24425423  0.21660198  0.33965803     0.03600
C420        C  0.21884395  0.19812481  0.35844745    -0.12550
C421        C  0.17820174  0.21887021  0.36368949     0.01100
C422        C  0.16532005  0.26142036  0.35160618    -0.11070
C423        C  0.19065773  0.28013456  0.33293326     0.03600
C424        C  0.22999457  0.25791261  0.32707887    -0.10490
H425        H  0.22922415  0.16535778  0.36774297     0.09190
H426        H  0.13355862  0.27703406  0.35493488     0.06720
H427        H  0.24779916  0.27055555  0.31152432     0.06570
C428        C  0.73681229  0.21381357  0.33324144     0.03600
C429        C  0.74859763  0.25777717  0.32206018    -0.12550
C430        C  0.78788609  0.28147255  0.32813737     0.01100
C431        C  0.81652362  0.25972176  0.34480499    -0.11070
C432        C  0.80550753  0.21512337  0.35598021     0.03600
C433        C  0.76444710  0.19395318  0.35087873    -0.10490
H434        H  0.72802275  0.27260424  0.30792459     0.09190
H435        H  0.84819675  0.27646617  0.34808750     0.06720
H436        H  0.75459503  0.16053365  0.35979184     0.06570
C437        C  0.18903588  0.75138472  0.33465863     0.03600
C438        C  0.22755480  0.77688134  0.32923915    -0.12550
C439        C  0.23422220  0.82505512  0.33758148     0.01100
C440        C  0.20481937  0.84605284  0.35366417    -0.11070
C441        C  0.16688529  0.82052804  0.36020578     0.03600
C442        C  0.15885014  0.77345456  0.35029629    -0.10490
H443        H  0.25097335  0.76070609  0.31710112     0.09190
H444        H  0.21063027  0.88324611  0.36021548     0.06720
H445        H  0.12825464  0.75502078  0.35390351     0.06570
C446        C  0.73374188  0.82144439  0.33213922     0.03600
C447        C  0.75857780  0.84818565  0.34918147    -0.12550
C448        C  0.79877711  0.83051728  0.35746942     0.01100
C449        C  0.81301252  0.78452397  0.34908236    -0.11070
C450        C  0.78897167  0.75813767  0.33137665     0.03600
C451        C  0.74909207  0.77652406  0.32318353    -0.10490
H452        H  0.74778262  0.88434550  0.35477586     0.09190
H453        H  0.84428532  0.77069231  0.35504056     0.06720
H454        H  0.73156973  0.75774411  0.30863740     0.06570
O455        O  0.07464910  0.92555318  0.52762423    -0.74820
O456        O  0.03718251  0.96909112  0.55582056    -0.53730
C457        C  0.06601228  0.93742053  0.54963524     0.78910
O458        O  0.07273256  0.12502880  0.44949251    -0.59420
O459        O  0.03727129  0.08013638  0.42007861    -0.52450
C460        C  0.06374710  0.11445894  0.42733664     0.70930
O461        O  0.08251384  0.11232098  0.52993851    -0.73980
O462        O  0.03938531  0.07346302  0.55711927    -0.54540
C463        C  0.07151279  0.10159561  0.55161597     0.76930
O464        O  0.06554478  0.91971975  0.44643149    -0.59120
O465        O  0.03172347  0.96693927  0.41832192    -0.52240
C466        C  0.05687400  0.93146758  0.42446905     0.73520
Zr467      Zr  0.04971431  0.94823798  0.48713168     2.54710
O468        O  0.12872310  0.94793606  0.48433048    -0.79690
O469        O  0.04502321  0.85889947  0.48780639    -0.93100
Zr470      Zr  0.05590996  0.09390611  0.48905726     2.64680
O471        O  0.13476337  0.08692592  0.48664146    -0.98060
O472        O  0.05985094  0.18313114  0.49257877    -0.80120
O473        O  0.05412530  0.02039577  0.51133727    -0.83480
O474        O  0.05352772  0.02165915  0.46443495    -2.18190
O475        O  0.89558040  0.93393995  0.44674217    -0.66870
O476        O  0.93548805  0.97390155  0.41835471    -0.51430
C477        C  0.90465731  0.94458817  0.42481722     0.71900
O478        O  0.89916545  0.11564525  0.52819770    -0.59770
O479        O  0.93931368  0.07441397  0.55614781    -0.51750
C480        C  0.90861068  0.10378053  0.54997324     0.73710
O481        O  0.90703603  0.12778547  0.44798871    -0.71170
O482        O  0.94228040  0.08305972  0.41922611    -0.49850
C483        C  0.91604892  0.11723334  0.42591744     0.75090
O484        O  0.89859914  0.92991652  0.52794073    -0.66500
O485        O  0.93987775  0.97090420  0.55601836    -0.53700
C486        C  0.90934630  0.94036982  0.54997845     0.73470
Zr487      Zr  0.92081605  0.95407906  0.48736457     2.77540
O488        O  0.84184705  0.95917048  0.48940420    -0.97250
O489        O  0.91999669  0.86469948  0.48543286    -0.78070
Zr490      Zr  0.92748188  0.10004764  0.48822710     2.70070
O491        O  0.84901960  0.11031183  0.48466342    -0.79320
O492        O  0.94009556  0.18768022  0.49454444    -0.98400
Zr493      Zr  0.98892756  0.02293998  0.53385479     2.21500
Zr494      Zr  0.98769533  0.02500398  0.44106335     2.11130
O495        O  0.92285279  0.02736587  0.46441763    -2.47090
O496        O  0.92332360  0.02688211  0.51090260    -0.79110
O497        O  0.98467399  0.95095822  0.46366580    -0.71310
O498        O  0.99178078  0.09798361  0.51229125    -2.32260
O499        O  0.98573016  0.94897702  0.51061186    -2.28470
O500        O  0.99154360  0.09828665  0.46501197    -0.73060
H501        H  0.07853344  0.02079865  0.45403506     0.78930
H502        H  0.99283464  0.12585429  0.52324716     0.80020
H503        H  0.89732922  0.02911319  0.45412156     0.82250
H504        H  0.98488653  0.92050450  0.52083766     0.79850
H505        H  0.04138487  0.19155809  0.50652268     0.42890
H506        H  0.96423393  0.19598509  0.48360849     0.41860
H507        H  0.83660329  0.08032051  0.49192263     0.41540
H508        H  0.83419516  0.98806832  0.47960613     0.39470
H509        H  0.94718972  0.85606924  0.47701536     0.42600
H510        H  0.02898501  0.85120134  0.50270013     0.37390
H511        H  0.13781828  0.98151224  0.48940177     0.43500
H512        H  0.14034362  0.07496109  0.47003264     0.39920
H513        H  0.83086495  0.93053572  0.47990248     0.44840
H514        H  0.07521214  0.84818413  0.49115486     0.43560
H515        H  0.14552303  0.12132268  0.48687148     0.43700
H516        H  0.91413535  0.20357641  0.48743946     0.44050
C517        C  0.80720574  0.88574343  0.39331455    -0.11790
C518        C  0.82664714  0.86192722  0.37364955     0.05210
C519        C  0.87168743  0.86975113  0.36953527    -0.07080
C520        C  0.89646275  0.89806153  0.38613065    -0.07820
C521        C  0.87697784  0.92073751  0.40603795    -0.02380
C522        C  0.83143799  0.91628189  0.40905227     0.04440
N523        N  0.80916885  0.94401672  0.42733681     0.66950
H524        H  0.77259439  0.88116923  0.39622275     0.15850
H525        H  0.93118654  0.90241693  0.38349435     0.15560
N526        N  0.89235190  0.85116845  0.34822407     0.74650
O527        O  0.77484215  0.92717389  0.43657434    -0.38800
O528        O  0.81991706  0.98816910  0.43162692    -0.38740
O529        O  0.87474418  0.85717825  0.32777965    -0.39450
O530        O  0.93083734  0.83532643  0.34938791    -0.39510
C531        C  0.12266924  0.89395625  0.36953584    -0.11790
C532        C  0.13419633  0.84576732  0.37546681     0.05210
C533        C  0.11519386  0.82390881  0.39588212    -0.07080
C534        C  0.08728670  0.85192354  0.41039960    -0.07820
C535        C  0.07834959  0.90151430  0.40543924    -0.02380
C536        C  0.09525293  0.92209233  0.38414420     0.04440
N537        N  0.08796304  0.97224325  0.37775902     0.66950
H538        H  0.13583263  0.91038796  0.35342999     0.15850
H539        H  0.07430341  0.83551368  0.42655007     0.15560
N540        N  0.12558152  0.77472397  0.40303661     0.74650
O541        O  0.11951788  0.99756534  0.37028793    -0.38800
O542        O  0.04972923  0.98672170  0.37352584    -0.38740
O543        O  0.16452586  0.76023730  0.40302894    -0.39450
O544        O  0.09670119  0.74781135  0.41226885    -0.39510
C545        C  0.86248192  0.21806375  0.38873000    -0.11790
C546        C  0.83714992  0.18987082  0.37235189     0.05210
C547        C  0.84201083  0.13805501  0.37224981    -0.07080
C548        C  0.86822695  0.11604586  0.38991655    -0.07820
C549        C  0.89204517  0.14416247  0.40692036    -0.02380
C550        C  0.89087799  0.19628421  0.40553734     0.04440
N551        N  0.91968285  0.22797520  0.41953154     0.66950
H552        H  0.85977568  0.25770583  0.38874145     0.15850
H553        H  0.87039103  0.07631407  0.39025656     0.15560
N554        N  0.82220284  0.10733177  0.35384620     0.74650
O555        O  0.93195129  0.26858608  0.41103942    -0.38800
O556        O  0.93196449  0.21702241  0.44054003    -0.38740
O557        O  0.82465891  0.11915382  0.33193999    -0.39450
O558        O  0.80721667  0.06550708  0.35908166    -0.39510
C559        C  0.12363174  0.21854629  0.39678182    -0.11790
C560        C  0.14659710  0.19249669  0.37907667     0.05210
C561        C  0.13797528  0.14173587  0.37568914    -0.07080
C562        C  0.10912723  0.11770155  0.39100694    -0.07820
C563        C  0.08742540  0.14321751  0.40922189    -0.02380
C564        C  0.09351296  0.19473774  0.41168044     0.04440
N565        N  0.06883805  0.22334217  0.42868778     0.66950
H566        H  0.12911634  0.25773243  0.39891286     0.15850
H567        H  0.10407018  0.07858050  0.38898852     0.15560
N568        N  0.15749254  0.11429531  0.35647537     0.74650
O569        O  0.08348909  0.26403441  0.43655101    -0.38800
O570        O  0.03023476  0.21114480  0.43362519    -0.38740
O571        O  0.17774411  0.07521473  0.36091924    -0.39450
O572        O  0.15312579  0.12803307  0.33490982    -0.39510
C573        C  0.17693789  0.42773715  0.17724400    -0.11790
C574        C  0.13657554  0.40356091  0.17956924     0.05210
C575        C  0.13104178  0.35610888  0.16917470    -0.07080
C576        C  0.16584632  0.33416259  0.15705981    -0.07820
C577        C  0.20670085  0.35744718  0.15582347    -0.02380
C578        C  0.21226712  0.40501005  0.16602289     0.04440
N579        N  0.25393492  0.42956298  0.16655752     0.66950
H580        H  0.18164743  0.46409956  0.18507415     0.15850
H581        H  0.16166887  0.29740950  0.14959454     0.15560
N582        N  0.09178889  0.32809092  0.17227828     0.74650
O583        O  0.25609063  0.47557210  0.16409878    -0.38800
O584        O  0.28768682  0.40681452  0.17305723    -0.38740
O585        O  0.07578581  0.30366023  0.15475601    -0.39450
O586        O  0.07803038  0.32028154  0.19326980    -0.39510
C587        C  0.16494987  0.65815438  0.28463210    -0.11790
C588        C  0.14249935  0.62191634  0.29710221     0.05210
C589        C  0.14118662  0.62423134  0.32263026    -0.07080
C590        C  0.15910161  0.66564714  0.33469259    -0.07820
C591        C  0.17768634  0.70458456  0.32182989    -0.02380
C592        C  0.18191233  0.69970285  0.29651725     0.04440
N593        N  0.19766805  0.73929968  0.28217945     0.66950
H594        H  0.16348551  0.65772996  0.26520229     0.15850
H595        H  0.15700986  0.66858229  0.35415715     0.15560
N596        N  0.11982334  0.58637790  0.33626159     0.74650
O597        O  0.22983072  0.73287820  0.26857965    -0.38800
O598        O  0.17601636  0.77834604  0.28064540    -0.38740
O599        O  0.11462027  0.54369129  0.32746803    -0.39450
O600        O  0.10851941  0.59449552  0.35776866    -0.39510
C601        C  0.81871408  0.63696827  0.30008321    -0.11790
C602        C  0.85685267  0.65186900  0.28839140     0.05210
C603        C  0.86993019  0.70178477  0.28970900    -0.07080
C604        C  0.84739614  0.73425190  0.30445083    -0.07820
C605        C  0.81077682  0.71930384  0.31723862    -0.02380
C606        C  0.79497649  0.67038054  0.31444827     0.04440
N607        N  0.75625541  0.65362318  0.32638918     0.66950
H608        H  0.80869113  0.59874520  0.29899180     0.15850
H609        H  0.85781465  0.77234618  0.30536564     0.15560
N610        N  0.90542121  0.72040993  0.27570220     0.74650
O611        O  0.73525209  0.61688297  0.31817008    -0.38800
O612        O  0.74422551  0.67329482  0.34591859    -0.38740
O613        O  0.90889114  0.70771586  0.25383173    -0.39450
O614        O  0.92917808  0.75496327  0.28393541    -0.39510
C615        C  0.83565090  0.40617965  0.31296900    -0.11790
C616        C  0.84614981  0.39829665  0.28868187     0.05210
C617        C  0.83172737  0.35486977  0.27674826    -0.07080
C618        C  0.80925920  0.31919276  0.28977938    -0.07820
C619        C  0.80195026  0.32518834  0.31455578    -0.02380
C620        C  0.81308736  0.37031472  0.32612033     0.04440
N621        N  0.80217657  0.38001868  0.35096416     0.66950
H622        H  0.84663633  0.43976009  0.32190100     0.15850
H623        H  0.80063950  0.28464793  0.28094520     0.15560
N624        N  0.84253731  0.34441194  0.25207480     0.74650
O625        O  0.82155353  0.41382951  0.36275072    -0.38800
O626        O  0.76998042  0.35883397  0.36040445    -0.38740
O627        O  0.88166589  0.34647161  0.24548298    -0.39450
O628        O  0.81467630  0.32403667  0.23823337    -0.39510
C629        C  0.18447277  0.36612180  0.31908859    -0.11790
C630        C  0.17215534  0.31659766  0.31653317     0.05210
C631        C  0.14349166  0.30183413  0.29769225    -0.07080
C632        C  0.12554645  0.33746785  0.28280989    -0.07820
C633        C  0.13496412  0.38748718  0.28645728    -0.02380
C634        C  0.16633100  0.40214795  0.30408843     0.04440
N635        N  0.17870876  0.45286649  0.30769035     0.66950
H636        H  0.20785014  0.37668598  0.33305036     0.15850
H637        H  0.10151403  0.32632500  0.26926793     0.15560
N638        N  0.13147177  0.25119669  0.29367582     0.74650
O639        O  0.19111630  0.46804604  0.32829013    -0.38800
O640        O  0.18362870  0.48063536  0.28984023    -0.38740
O641        O  0.11658799  0.22590078  0.31068216    -0.39450
O642        O  0.12884595  0.23423252  0.27240203    -0.39510
C643        C  0.33941103  0.13463044  0.16548747    -0.11790
C644        C  0.33905049  0.13611322  0.19083750     0.05210
C645        C  0.31839280  0.17568081  0.20271590    -0.07080
C646        C  0.30164206  0.21429763  0.18885380    -0.07820
C647        C  0.30507979  0.21463938  0.16350834    -0.02380
C648        C  0.32207542  0.17285443  0.15167168     0.04440
N649        N  0.32173562  0.16849122  0.12579809     0.66950
H650        H  0.35484971  0.10401157  0.15639523     0.15850
H651        H  0.28854514  0.24603534  0.19815001     0.15560
N652        N  0.31674386  0.17941980  0.22863312     0.74650
O653        O  0.35180040  0.14583836  0.11515575    -0.38800
O654        O  0.28865316  0.18146253  0.11380800    -0.38740
O655        O  0.34936475  0.16850494  0.24149314    -0.39450
O656        O  0.28453790  0.19946865  0.23857925    -0.39510
C657        C  0.62770616  0.88910324  0.32214195    -0.11790
C658        C  0.63205056  0.90279278  0.29789806     0.05210
C659        C  0.66872358  0.88667764  0.28488433    -0.07080
C660        C  0.69985544  0.85768647  0.29629463    -0.07820
C661        C  0.69606152  0.84512147  0.32059540    -0.02380
C662        C  0.65938486  0.86055892  0.33377937     0.04440
N663        N  0.65356825  0.84729932  0.35865496     0.66950
H664        H  0.59935513  0.90076147  0.33207753     0.15850
H665        H  0.72832419  0.84647685  0.28630299     0.15560
N666        N  0.67483233  0.89850300  0.26002575     0.74650
O667        O  0.63012722  0.87325821  0.37225927    -0.38800
O668        O  0.66853638  0.80749214  0.36660961    -0.38740
O669        O  0.68705496  0.94131105  0.25460273    -0.39450
O670        O  0.67961851  0.86412226  0.24483113    -0.39510
C671        C  0.62531076  0.17809400  0.30787375    -0.11790
C672        C  0.63350807  0.13044078  0.29892150     0.05210
C673        C  0.67478137  0.10958748  0.30320334    -0.07080
C674        C  0.70686019  0.13677260  0.31560631    -0.07820
C675        C  0.69914710  0.18486055  0.32383512    -0.02380
C676        C  0.65745480  0.20554074  0.32041423     0.04440
N677        N  0.64701039  0.25358497  0.32979344     0.66950
H678        H  0.59351984  0.19418096  0.30510198     0.15850
H679        H  0.73875883  0.12070976  0.31798084     0.15560
N680        N  0.68480859  0.06082844  0.29524903     0.74650
O681        O  0.61757102  0.27870308  0.31985839    -0.38800
O682        O  0.66392402  0.26906009  0.34935951    -0.38740
O683        O  0.69714483  0.05369064  0.27385902    -0.39450
O684        O  0.69027583  0.02754276  0.31062652    -0.39510
C685        C  0.27199750  0.13831546  0.32327944    -0.11790
C686        C  0.28054201  0.18747824  0.32976790     0.05210
C687        C  0.32068665  0.20927363  0.32338185    -0.07080
C688        C  0.35007204  0.18187349  0.30954476    -0.07820
C689        C  0.34068894  0.13320700  0.30220043    -0.02380
C690        C  0.30135283  0.11114753  0.30958537     0.04440
N691        N  0.29070591  0.06111589  0.30368754     0.66950
H692        H  0.24123694  0.12135703  0.32789411     0.15850
H693        H  0.38063665  0.19874434  0.30446402     0.15560
N694        N  0.33222369  0.25859543  0.33092781     0.74650
O695        O  0.28619476  0.03062913  0.32047410    -0.38800
O696        O  0.27573352  0.05054340  0.28294102    -0.38740
O697        O  0.31922329  0.27568237  0.35083800    -0.39450
O698        O  0.35880165  0.28361588  0.31883008    -0.39510
C699        C  0.29274668  0.91844227  0.29911673    -0.11790
C700        C  0.33662058  0.90914703  0.30492633     0.05210
C701        C  0.34594453  0.87401280  0.32301596    -0.07080
C702        C  0.31190277  0.84678272  0.33307365    -0.07820
C703        C  0.26849763  0.85551821  0.32670559    -0.02380
C704        C  0.25849328  0.89270093  0.30989763     0.04440
N705        N  0.21426138  0.90458265  0.30319338     0.66950
H706        H  0.28480609  0.94532688  0.28555058     0.15850
H707        H  0.31928737  0.81930887  0.34649179     0.15560
N708        N  0.38926996  0.86643851  0.33207887     0.74650
O709        O  0.20531556  0.94700972  0.29571355    -0.38800
O710        O  0.18458827  0.87224591  0.30289169    -0.38740
O711        O  0.40925239  0.90138715  0.34265927    -0.39450
O712        O  0.40345795  0.82330088  0.33426597    -0.39510
C713        C  0.85090180  0.68028294  0.17718906    -0.11790
C714        C  0.84760263  0.62951424  0.18101272     0.05210
C715        C  0.81043410  0.60384514  0.17238944    -0.07080
C716        C  0.77661276  0.62934483  0.16122459    -0.07820
C717        C  0.77882584  0.68049661  0.15817875    -0.02380
C718        C  0.81714323  0.70617522  0.16572587     0.04440
N719        N  0.82263927  0.75797111  0.16166338     0.66950
H720        H  0.87985285  0.69996073  0.18335173     0.15850
H721        H  0.74762449  0.60898214  0.15571126     0.15560
N722        N  0.80669987  0.55168197  0.17454264     0.74650
O723        O  0.84471930  0.78412990  0.17636106    -0.38800
O724        O  0.80915195  0.77683565  0.14228479    -0.38740
O725        O  0.79044841  0.53378070  0.19333184    -0.39450
O726        O  0.81080446  0.52472585  0.15603479    -0.39510
C727        C  0.63312396  0.79361248  0.18684495    -0.11790
C728        C  0.66428486  0.80734754  0.17000416     0.05210
C729        C  0.67631791  0.85756783  0.16785047    -0.07080
C730        C  0.65422257  0.89300104  0.18180024    -0.07820
C731        C  0.62098727  0.87913185  0.19751448    -0.02380
C732        C  0.61185593  0.82863780  0.20090904     0.04440
N733        N  0.58104080  0.81243344  0.21855200     0.66950
H734        H  0.62534333  0.75500061  0.18903511     0.15850
H735        H  0.66092417  0.93172132  0.17924496     0.15560
N736        N  0.70924414  0.87352976  0.15124953     0.74650
O737        O  0.55899914  0.77361803  0.21492481    -0.38800
O738        O  0.57992568  0.83308697  0.23904607    -0.38740
O739        O  0.71833235  0.84820026  0.13278604    -0.39450
O740        O  0.72773657  0.91479941  0.15425354    -0.39510
C741        C  0.59254393  0.17237514  0.17630308    -0.11790
C742        C  0.61702191  0.13422282  0.18635892     0.05210
C743        C  0.66307474  0.13832390  0.18625498    -0.07080
C744        C  0.68263488  0.17927270  0.17491815    -0.07820
C745        C  0.65725323  0.21713283  0.16484976    -0.02380
C746        C  0.61162999  0.21453668  0.16715324     0.04440
N747        N  0.58421227  0.25605201  0.16262052     0.66950
H748        H  0.55743867  0.17138872  0.17719100     0.15850
H749        H  0.71778698  0.18139908  0.17382331     0.15560
N750        N  0.69032808  0.10176218  0.19706025     0.74650
O751        O  0.54495117  0.24927784  0.15627549    -0.38800
O752        O  0.59604733  0.29824719  0.16995733    -0.38740
O753        O  0.68127564  0.05666418  0.19451917    -0.39450
O754        O  0.72587680  0.11423752  0.20715855    -0.39510
C755        C  0.79574826  0.41264126  0.19540189    -0.11790
C756        C  0.83766268  0.40497781  0.18598749     0.05210
C757        C  0.84204261  0.37169953  0.16632192    -0.07080
C758        C  0.80504906  0.34877745  0.15622681    -0.07820
C759        C  0.76359487  0.35705441  0.16555078    -0.02380
C760        C  0.75856823  0.38932377  0.18547182     0.04440
N761        N  0.71655943  0.39888735  0.19589834     0.66950
H762        H  0.79166619  0.43736171  0.21063761     0.15850
H763        H  0.80880082  0.32340954  0.14117098     0.15560
N764        N  0.88360815  0.35957965  0.15663246     0.74650
O765        O  0.71401738  0.41401629  0.21746502    -0.38800
O766        O  0.68210473  0.39598515  0.18328939    -0.38740
O767        O  0.90802093  0.33064635  0.16804632    -0.39450
O768        O  0.89119817  0.36792710  0.13472286    -0.39510
C769        C  0.14030703  0.62622626  0.15572897    -0.11790
C770        C  0.14507310  0.61918509  0.18077574     0.05210
C771        C  0.18383442  0.63558660  0.19244292    -0.07080
C772        C  0.21562474  0.65964571  0.17919773    -0.07820
C773        C  0.21025580  0.66855783  0.15458323    -0.02380
C774        C  0.17250425  0.65076737  0.14233732     0.04440
N775        N  0.16561102  0.65812952  0.11685800     0.66950
H776        H  0.11080807  0.61341678  0.14666113     0.15850
H777        H  0.24485556  0.67280844  0.18847756     0.15560
N778        N  0.19046740  0.63246817  0.21799387     0.74650
O779        O  0.14096033  0.62929530  0.10488542    -0.38800
O780        O  0.18158314  0.69502217  0.10646516    -0.38740
O781        O  0.19521645  0.59097880  0.22754501    -0.39450
O782        O  0.20453348  0.67005587  0.22923362    -0.39510
C783        C  0.30234948  0.81189203  0.18772139    -0.11790
C784        C  0.30180518  0.81651885  0.16244311     0.05210
C785        C  0.31452017  0.86169774  0.15222721    -0.07080
C786        C  0.33101624  0.89926656  0.16752464    -0.07820
C787        C  0.33411219  0.89329964  0.19263865    -0.02380
C788        C  0.31813302  0.84968967  0.20300947     0.04440
N789        N  0.32045710  0.84184845  0.22869196     0.66950
H790        H  0.29209593  0.77748436  0.19557941     0.15850
H791        H  0.34379122  0.93265723  0.15971509     0.15560
N792        N  0.31148358  0.86984423  0.12661755     0.74650
O793        O  0.32059819  0.79879206  0.23693761    -0.38800
O794        O  0.31839770  0.87762449  0.24331623    -0.38740
O795        O  0.28149423  0.84973014  0.11412621    -0.39450
O796        O  0.33581711  0.90127053  0.11683419    -0.39510
C797        C  0.39748064  0.62488263  0.09153997    -0.11790
C798        C  0.38836172  0.63147919  0.06679229     0.05210
C799        C  0.35543134  0.66551254  0.06036400    -0.07080
C800        C  0.33287880  0.69106171  0.07829904    -0.07820
C801        C  0.34125382  0.68331878  0.10278486    -0.02380
C802        C  0.37432738  0.65008836  0.10966953     0.04440
N803        N  0.38441552  0.64078426  0.13470527     0.66950
H804        H  0.42274198  0.59957325  0.09688499     0.15850
H805        H  0.30697497  0.71570484  0.07301413     0.15560
N806        N  0.34253417  0.67309056  0.03581215     0.74650
O807        O  0.40354819  0.60176757  0.14063119    -0.38800
O808        O  0.37743885  0.67283480  0.15081695    -0.38740
O809        O  0.31781618  0.64196436  0.02543141    -0.39450
O810        O  0.34697700  0.71511875  0.02674390    -0.39510
C811        C  0.58429037  0.62629021  0.09354480    -0.11790
C812        C  0.59333164  0.63373211  0.06898147     0.05210
C813        C  0.62846055  0.66574521  0.06317017    -0.07080
C814        C  0.65415551  0.68707269  0.08160029    -0.07820
C815        C  0.64522120  0.67906337  0.10589155    -0.02380
C816        C  0.60960638  0.64855546  0.11209819     0.04440
N817        N  0.59896224  0.63912060  0.13690618     0.66950
H818        H  0.55773521  0.60211022  0.09843376     0.15850
H819        H  0.68091734  0.71121199  0.07688802     0.15560
N820        N  0.63836557  0.67807176  0.03877701     0.74650
O821        O  0.56046254  0.62771662  0.14247164    -0.38800
O822        O  0.62830549  0.63809343  0.15304452    -0.38740
O823        O  0.61275862  0.70532816  0.02713991    -0.39450
O824        O  0.67634625  0.67138054  0.03099819    -0.39510
C825        C  0.38566676  0.35023555  0.06853172    -0.11790
C826        C  0.39164748  0.40143153  0.07016788     0.05210
C827        C  0.37172473  0.42745967  0.08929182    -0.07080
C828        C  0.34718606  0.40156179  0.10633200    -0.07820
C829        C  0.33973116  0.35052515  0.10423376    -0.02380
C830        C  0.35955922  0.32465602  0.08498687     0.04440
N831        N  0.35151379  0.27320440  0.08089550     0.66950
H832        H  0.40026395  0.33009483  0.05374828     0.15850
H833        H  0.33232288  0.42194254  0.12093842     0.15560
N834        N  0.37319057  0.48024690  0.09073627     0.74650
O835        O  0.31293606  0.25686761  0.08025581    -0.38800
O836        O  0.38207643  0.24559849  0.07426119    -0.38740
O837        O  0.36610708  0.50529794  0.07208904    -0.39450
O838        O  0.37394120  0.50168797  0.11106999    -0.39510
C839        C  0.66694659  0.38350465  0.08771784    -0.11790
C840        C  0.64459653  0.35132176  0.10319614     0.05210
C841        C  0.59846175  0.34856312  0.10085301    -0.07080
C842        C  0.57651970  0.37821920  0.08437523    -0.07820
C843        C  0.59883395  0.41078777  0.06972358    -0.02380
C844        C  0.64472292  0.41401759  0.07140575     0.04440
N845        N  0.66895013  0.44920586  0.05755016     0.66950
H846        H  0.70211539  0.38590115  0.08870589     0.15850
H847        H  0.54138144  0.37490507  0.08265803     0.15560
N848        N  0.57234594  0.31691832  0.11509522     0.74650
O849        O  0.70877502  0.44240525  0.05333217    -0.38800
O850        O  0.65230626  0.48990667  0.05205777    -0.38740
O851        O  0.54747392  0.33648292  0.13033854    -0.39450
O852        O  0.56188058  0.27537011  0.10634222    -0.39510
C853        C  0.83548823  0.85454358  0.58612277    -0.11790
C854        C  0.84599320  0.86908265  0.60982379     0.05210
C855        C  0.87642597  0.90769843  0.61394095    -0.07080
C856        C  0.89565395  0.93032790  0.59401392    -0.07820
C857        C  0.88562346  0.91579552  0.57005639    -0.02380
C858        C  0.85443973  0.87760789  0.56625782     0.04440
N859        N  0.84079476  0.86216883  0.54253793     0.66950
H860        H  0.81154145  0.82559829  0.58301540     0.15850
H861        H  0.91920447  0.95948504  0.59741449     0.15560
N862        N  0.88806351  0.92486469  0.63795512     0.74650
O863        O  0.84355758  0.81746577  0.53647651    -0.38800
O864        O  0.81741186  0.89026550  0.52999639    -0.38740
O865        O  0.88772754  0.89613893  0.65565679    -0.39450
O866        O  0.90272138  0.96795049  0.64120672    -0.39510
C867        C  0.87193396  0.09419774  0.58900564    -0.11790
C868        C  0.88163953  0.12427072  0.56938285     0.05210
C869        C  0.86676389  0.17329648  0.56926145    -0.07080
C870        C  0.84448424  0.19172598  0.58924092    -0.07820
C871        C  0.83567111  0.16186423  0.60903879    -0.02380
C872        C  0.84924951  0.11237737  0.60886750     0.04440
N873        N  0.84217977  0.08080333  0.62906618     0.66950
H874        H  0.88303169  0.05648388  0.58915823     0.15850
H875        H  0.83396350  0.22964910  0.58933762     0.15560
N876        N  0.87531474  0.20538330  0.54954760     0.74650
O877        O  0.83187022  0.03627226  0.62555530    -0.38800
O878        O  0.85150818  0.09547602  0.65021200    -0.38740
O879        O  0.85369188  0.20031875  0.53014730    -0.39450
O880        O  0.89654025  0.24468374  0.55332530    -0.39510
C881        C  0.07070371  0.90954124  0.59217170    -0.11790
C882        C  0.09026323  0.91260743  0.56944744     0.05210
C883        C  0.13220883  0.89219654  0.56640206    -0.07080
C884        C  0.15213642  0.86725875  0.58563301    -0.07820
C885        C  0.13265300  0.86470388  0.60840944    -0.02380
C886        C  0.09177529  0.88741858  0.61175104     0.04440
N887        N  0.07241057  0.89126790  0.63515063     0.66950
H888        H  0.03910440  0.92590246  0.59502844     0.15850
H889        H  0.18382161  0.85101241  0.58295940     0.15560
N890        N  0.15629196  0.89915005  0.54464195     0.74650
O891        O  0.09469767  0.90741413  0.65286175    -0.38800
O892        O  0.03172659  0.88642671  0.63732777    -0.38740
O893        O  0.16121813  0.94187403  0.53642492    -0.39450
O894        O  0.17920355  0.86473173  0.53631972    -0.39510
C895        C  0.07425628  0.13884576  0.59237377    -0.11790
C896        C  0.09692559  0.12374911  0.57186946     0.05210
C897        C  0.14277717  0.12954937  0.57145226    -0.07080
C898        C  0.16404506  0.15370886  0.59094366    -0.07820
C899        C  0.14138156  0.16837109  0.61176298    -0.02380
C900        C  0.09585549  0.15921001  0.61248593     0.04440
N901        N  0.07138665  0.16646672  0.63404410     0.66950
H902        H  0.03931973  0.13313016  0.59315155     0.15850
H903        H  0.19885258  0.15975943  0.59006860     0.15560
N904        N  0.16842047  0.10840181  0.55241908     0.74650
O905        O  0.03522038  0.18814527  0.63311947    -0.38800
O906        O  0.08165123  0.14312927  0.65276942    -0.38740
O907        O  0.15834236  0.06680399  0.54357621    -0.39450
O908        O  0.20496533  0.12692311  0.54735813    -0.39510
C909        C  0.36490126  0.32987004  0.87954484    -0.11790
C910        C  0.31937556  0.33659699  0.88091572     0.05210
C911        C  0.30448840  0.37339624  0.89727306    -0.07080
C912        C  0.33492303  0.40332156  0.91008208    -0.07820
C913        C  0.37997347  0.39470430  0.90922367    -0.02380
C914        C  0.39454394  0.35493838  0.89496761     0.04440
N915        N  0.43751499  0.33527122  0.89810040     0.66950
H916        H  0.37799912  0.30290769  0.86725003     0.15850
H917        H  0.32309418  0.43140689  0.92233020     0.15560
N918        N  0.25916842  0.37855703  0.90276780     0.74650
O919        O  0.45476573  0.31114128  0.88116717    -0.38800
O920        O  0.45394003  0.33251558  0.91904684    -0.38740
O921        O  0.23662901  0.34114549  0.90781547    -0.39450
O922        O  0.24343775  0.42070580  0.90632427    -0.39510
C923        C  0.66190394  0.63251474  0.88242464    -0.11790
C924        C  0.66251789  0.68394479  0.88559331     0.05210
C925        C  0.63168714  0.70571608  0.90108394    -0.07080
C926        C  0.60056653  0.67582496  0.91225756    -0.07820
C927        C  0.60014695  0.62439682  0.90938178    -0.02380
C928        C  0.63187620  0.60227280  0.89454775     0.04440
N929        N  0.63572416  0.54971226  0.89250788     0.66950
H930        H  0.68533259  0.61572373  0.87052989     0.15850
H931        H  0.57757207  0.69271139  0.92444712     0.15560
N932        N  0.63252150  0.75764993  0.90642787     0.74650
O933        O  0.65050936  0.53047069  0.87348181    -0.38800
O934        O  0.63037631  0.52302836  0.91071731    -0.38740
O935        O  0.59793921  0.77954292  0.91206158    -0.39450
O936        O  0.66831132  0.78067038  0.90815695    -0.39510
C937        C  0.32796806  0.63382678  0.87715905    -0.11790
C938        C  0.33008288  0.68537450  0.88014698     0.05210
C939        C  0.36257146  0.70535941  0.89588466    -0.07080
C940        C  0.39189280  0.67397583  0.90761320    -0.07820
C941        C  0.38883985  0.62261739  0.90526604    -0.02380
C942        C  0.35616960  0.60212356  0.88982428     0.04440
N943        N  0.34919463  0.54980889  0.88782651     0.66950
H944        H  0.30385446  0.61785299  0.86492781     0.15850
H945        H  0.41550692  0.68978823  0.92024345     0.15560
N946        N  0.36413481  0.75685187  0.90185145     0.74650
O947        O  0.31151501  0.53277394  0.88342874    -0.38800
O948        O  0.38082167  0.52056253  0.88853783    -0.38740
O949        O  0.32983458  0.77880703  0.90790788    -0.39450
O950        O  0.40039292  0.77849443  0.90467881    -0.39510
C951        C  0.36259085  0.17633473  0.79671886    -0.11790
C952        C  0.34732867  0.12781215  0.79370206     0.05210
C953        C  0.30783623  0.11369243  0.80469183    -0.07080
C954        C  0.28576367  0.14852627  0.81907791    -0.07820
C955        C  0.30300691  0.19606796  0.82313370    -0.02380
C956        C  0.34121394  0.21039142  0.81114047     0.04440
N957        N  0.35848212  0.25959806  0.81302726     0.66950
H958        H  0.39212116  0.18795053  0.78780414     0.15850
H959        H  0.25591582  0.13800165  0.82794296     0.15560
N960        N  0.29073458  0.06445267  0.80250149     0.74650
O961        O  0.39908504  0.26661258  0.81489260    -0.38800
O962        O  0.33394534  0.29599807  0.80982544    -0.38740
O963        O  0.31587004  0.02801737  0.80307371    -0.39450
O964        O  0.25011229  0.05701949  0.80287213    -0.39510
C965        C  0.34909818  0.90041202  0.82219317    -0.11790
C966        C  0.34113519  0.89855621  0.79715611     0.05210
C967        C  0.30852016  0.86652636  0.78771620    -0.07080
C968        C  0.28796281  0.83395188  0.80350846    -0.07820
C969        C  0.29905347  0.83271715  0.82824219    -0.02380
C970        C  0.32810253  0.86836841  0.83792033     0.04440
N971        N  0.33683696  0.87218339  0.86345320     0.66950
H972        H  0.37327780  0.92604368  0.82941969     0.15850
H973        H  0.26544854  0.80676456  0.79604954     0.15560
N974        N  0.29759042  0.86393923  0.76235200     0.74650
O975        O  0.37328643  0.88792010  0.87115282    -0.38800
O976        O  0.30667433  0.86513333  0.87832707    -0.38740
O977        O  0.32603922  0.87125806  0.74655000    -0.39450
O978        O  0.25999105  0.85005142  0.75560515    -0.39510
C979        C  0.66695007  0.88771370  0.80234283    -0.11790
C980        C  0.62726681  0.87185424  0.79203728     0.05210
C981        C  0.61374698  0.82237426  0.79474374    -0.07080
C982        C  0.63781237  0.79155202  0.80951215    -0.07820
C983        C  0.67564364  0.80815756  0.82136370    -0.02380
C984        C  0.69146502  0.85638344  0.81716787     0.04440
N985        N  0.73068557  0.87497699  0.82859091     0.66950
H986        H  0.67734045  0.92554394  0.80023087     0.15850
H987        H  0.62692449  0.75389294  0.81172378     0.15560
N988        N  0.57561100  0.80279606  0.78264547     0.74650
O989        O  0.75406057  0.90610141  0.81792898    -0.38800
O990        O  0.73975808  0.86451849  0.85019913    -0.38740
O991        O  0.56910482  0.81110138  0.76053393    -0.39450
O992        O  0.55109890  0.77268771  0.79323954    -0.39510
C993        C  0.68570405  0.11094086  0.70394319    -0.11790
C994        C  0.64507962  0.11416702  0.69198756     0.05210
C995        C  0.64298322  0.13823042  0.66948822    -0.07080
C996        C  0.68111180  0.15760414  0.65953774    -0.07820
C997        C  0.72127338  0.15437832  0.67168962    -0.02380
C998        C  0.72379417  0.13011398  0.69401935     0.04440
N999        N  0.76469625  0.12333300  0.70650656     0.66950
H1000       H  0.68821074  0.09237736  0.72107894     0.15850
H1001       H  0.67919546  0.17646317  0.64244121     0.15560
N1002       N  0.60283113  0.14328184  0.65639051     0.74650
O1003       O  0.76591946  0.12118057  0.72925439    -0.38800
O1004       O  0.79877385  0.11381884  0.69488970    -0.38740
O1005       O  0.57503772  0.17379595  0.66367153    -0.39450
O1006       O  0.59943125  0.12598423  0.63521045    -0.39510
C1007       C  0.68314122  0.93475481  0.68580417    -0.11790
C1008       C  0.64439227  0.90660324  0.68540221     0.05210
C1009       C  0.64515528  0.85884696  0.67502794    -0.07080
C1010       C  0.68479244  0.83961753  0.66685922    -0.07820
C1011       C  0.72348023  0.86743930  0.66802154    -0.02380
C1012       C  0.72263304  0.91590370  0.67741378     0.04440
N1013       N  0.76150822  0.94582647  0.67943825     0.66950
H1014       H  0.68303677  0.97152104  0.69353456     0.15850
H1015       H  0.68534552  0.80278628  0.65921238     0.15560
N1016       N  0.60659476  0.82899410  0.67300815     0.74650
O1017       O  0.75892694  0.99207213  0.67874430    -0.38800
O1018       O  0.79777087  0.92678800  0.68454722    -0.38740
O1019       O  0.57572567  0.84233502  0.65940812    -0.39450
O1020       O  0.60736254  0.78515680  0.68016971    -0.39510
C1021       C  0.32047617  0.91556532  0.66697833    -0.11790
C1022       C  0.34463507  0.88772049  0.68317180     0.05210
C1023       C  0.33181426  0.83833057  0.68719046    -0.07080
C1024       C  0.29267841  0.82092713  0.67620916    -0.07820
C1025       C  0.26514583  0.85194281  0.66265499    -0.02380
C1026       C  0.28003594  0.90010698  0.65791485     0.04440
N1027       N  0.25329230  0.93566590  0.64603915     0.66950
H1028       H  0.33217926  0.95122209  0.66244837     0.15850
H1029       H  0.28276944  0.78321294  0.67901651     0.15560
N1030       N  0.35682532  0.80566375  0.70229056     0.74650
O1031       O  0.21660892  0.94646370  0.65458015    -0.38800
O1032       O  0.26915261  0.96206309  0.62969684    -0.38740
O1033       O  0.38789062  0.82133621  0.71543529    -0.39450
O1034       O  0.34750429  0.76041053  0.70278551    -0.39510
C1035       C  0.34373588  0.17880729  0.68753566    -0.11790
C1036       C  0.34585948  0.12732563  0.68750500     0.05210
C1037       C  0.31202253  0.10010690  0.67638696    -0.07080
C1038       C  0.27498979  0.12331961  0.66766935    -0.07820
C1039       C  0.27170895  0.17453006  0.66800672    -0.02380
C1040       C  0.30735307  0.20300708  0.67735082     0.04440
N1041       N  0.30772439  0.25580310  0.67609936     0.66950
H1042       H  0.37036067  0.20003610  0.69547239     0.15850
H1043       H  0.24861384  0.10078164  0.66037175     0.15560
N1044       N  0.31648525  0.04869983  0.67234945     0.74650
O1045       O  0.32939491  0.28103870  0.69135662    -0.38800
O1046       O  0.29091316  0.27708485  0.65817861    -0.38740
O1047       O  0.28486213  0.02002600  0.67608553    -0.39450
O1048       O  0.35030589  0.03307660  0.66217823    -0.39510
C1049       C  0.62097384  0.35005336  0.87390789    -0.11790
C1050       C  0.66437421  0.34259361  0.88137746     0.05210
C1051       C  0.67970364  0.36745009  0.90243733    -0.07080
C1052       C  0.65097448  0.39702322  0.91574872    -0.07820
C1053       C  0.60680368  0.40235127  0.90907989    -0.02380
C1054       C  0.59189925  0.37907015  0.88739847     0.04440
N1055       N  0.54734714  0.38202437  0.87925925     0.66950
H1056       H  0.60921997  0.33196444  0.85754167     0.15850
H1057       H  0.66301516  0.41475322  0.93215984     0.15560
N1058       N  0.72353325  0.36154612  0.91129643     0.74650
O1059       O  0.53783695  0.37622196  0.85716933    -0.38800
O1060       O  0.51691477  0.38378462  0.89424256    -0.38740
O1061       O  0.74355284  0.39745822  0.92104232    -0.39450
O1062       O  0.74045385  0.31946637  0.91201447    -0.39510
C1063       C  0.66408779  0.11127347  0.81354145    -0.11790
C1064       C  0.63270073  0.12848105  0.79713827     0.05210
C1065       C  0.62578765  0.17956086  0.79521621    -0.07080
C1066       C  0.64740608  0.21178498  0.81107358    -0.07820
C1067       C  0.67731789  0.19492570  0.82822197    -0.02380
C1068       C  0.68713647  0.14409361  0.82911805     0.04440
N1069       N  0.71886975  0.12503667  0.84590858     0.66950
H1070       H  0.66891203  0.07204314  0.81505943     0.15850
H1071       H  0.64174553  0.25092427  0.80960080     0.15560
N1072       N  0.59722415  0.19928150  0.77704481     0.74650
O1073       O  0.73487913  0.08297243  0.84248294    -0.38800
O1074       O  0.72941161  0.14863083  0.86487191    -0.38740
O1075       O  0.57665581  0.23844247  0.78111931    -0.39450
O1076       O  0.59732054  0.18173016  0.75586047    -0.39510
C1077       C  0.10726750  0.33834816  0.83189698    -0.11790
C1078       C  0.10858970  0.35360736  0.80782354     0.05210
C1079       C  0.14652454  0.34558522  0.79417057    -0.07080
C1080       C  0.18256740  0.32376179  0.80522561    -0.07820
C1081       C  0.18220950  0.31099990  0.82964455    -0.02380
C1082       C  0.14355552  0.31639323  0.84304853     0.04440
N1083       N  0.14051309  0.30015308  0.86767526     0.66950
H1084       H  0.07817286  0.34521174  0.84223594     0.15850
H1085       H  0.21217837  0.31906283  0.79502130     0.15560
N1086       N  0.15016361  0.36171027  0.76961580     0.74650
O1087       O  0.11104765  0.31660971  0.88117908    -0.38800
O1088       O  0.16409735  0.26576298  0.87533273    -0.38740
O1089       O  0.13676798  0.40355595  0.76356702    -0.39450
O1090       O  0.17249862  0.33724763  0.75481728    -0.39510
C1091       C  0.10757939  0.70611870  0.83065254    -0.11790
C1092       C  0.11480074  0.67211919  0.81192853     0.05210
C1093       C  0.15793398  0.65970858  0.80586910    -0.07080
C1094       C  0.19243970  0.67756930  0.82002181    -0.07820
C1095       C  0.18560663  0.71013619  0.83924212    -0.02380
C1096       C  0.14280961  0.72648879  0.84417440     0.04440
N1097       N  0.13440277  0.76240290  0.86284953     0.66950
H1098       H  0.07443158  0.71492461  0.83545089     0.15850
H1099       H  0.22544177  0.66773100  0.81529254     0.15560
N1100       N  0.16711265  0.62931218  0.78517148     0.74650
O1101       O  0.09910091  0.78587572  0.86276604    -0.38800
O1102       O  0.16112674  0.76956334  0.88004863    -0.38740
O1103       O  0.14673048  0.63598218  0.76559447    -0.39450
O1104       O  0.20009227  0.60189584  0.78516111    -0.39510
C1105       C  0.86234392  0.64618006  0.84153822    -0.11790
C1106       C  0.88504772  0.67122261  0.82335772     0.05210
C1107       C  0.87174274  0.71932763  0.81784573    -0.07080
C1108       C  0.83457722  0.73865315  0.82923737    -0.07820
C1109       C  0.80658318  0.70872279  0.84323053    -0.02380
C1110       C  0.82166426  0.66134843  0.84926273     0.04440
N1111       N  0.79418204  0.62464118  0.85962587     0.66950
H1112       H  0.87264153  0.61002909  0.84714728     0.15850
H1113       H  0.82598757  0.77618884  0.82535108     0.15560
N1114       N  0.89304444  0.74779293  0.79978388     0.74650
O1115       O  0.76141814  0.60895492  0.84780667    -0.38800
O1116       O  0.80765756  0.60058177  0.87752779    -0.38740
O1117       O  0.89388224  0.73208524  0.77826945    -0.39450
O1118       O  0.90215002  0.79238762  0.80404864    -0.39510
C1119       C  0.87261545  0.31589606  0.81836790    -0.11790
C1120       C  0.86477280  0.35774270  0.80448890     0.05210
C1121       C  0.82157122  0.37531013  0.80200895    -0.07080
C1122       C  0.78848187  0.35389239  0.81545415    -0.07820
C1123       C  0.79654923  0.31432402  0.83065163    -0.02380
C1124       C  0.83876128  0.29342875  0.83143231     0.04440
N1125       N  0.84831515  0.25114433  0.84591276     0.66950
H1126       H  0.90566530  0.30278444  0.82034796     0.15850
H1127       H  0.75561918  0.36783674  0.81382075     0.15560
N1128       N  0.81097970  0.41568295  0.78637975     0.74650
O1129       O  0.87972121  0.22359581  0.84053958    -0.38800
O1130       O  0.82753747  0.24283625  0.86497178    -0.38740
O1131       O  0.83253505  0.42322666  0.76751219    -0.39450
O1132       O  0.77790537  0.44169603  0.79036348    -0.39510
C1133       C  0.84830308  0.67759855  0.70368989    -0.11790
C1134       C  0.89373383  0.68147619  0.70639347     0.05210
C1135       C  0.91631989  0.71815509  0.69358611    -0.07080
C1136       C  0.89235039  0.75247748  0.68018933    -0.07820
C1137       C  0.84679149  0.74868959  0.67737111    -0.02380
C1138       C  0.82473340  0.70953794  0.68879322     0.04440
N1139       N  0.77913250  0.69994988  0.68455357     0.66950
H1140       H  0.83116960  0.64807130  0.71259534     0.15850
H1141       H  0.90968110  0.78185685  0.67134590     0.15560
N1142       N  0.96315209  0.71899471  0.69238522     0.74650
O1143       O  0.76324927  0.70250404  0.66348397    -0.38800
O1144       O  0.75595507  0.68268227  0.70115087    -0.38740
O1145       O  0.98407447  0.67927179  0.69204830    -0.39450
O1146       O  0.98280258  0.75814293  0.68692550    -0.39510
C1147       C  0.07690638  0.73176501  0.70971784    -0.11790
C1148       C  0.09102383  0.68265395  0.70897774     0.05210
C1149       C  0.12710892  0.67062350  0.69432099    -0.07080
C1150       C  0.14599297  0.70648981  0.67994257    -0.07820
C1151       C  0.13133585  0.75488045  0.68039011    -0.02380
C1152       C  0.09707869  0.76834589  0.69586797     0.04560
N1153       N  0.08344948  0.81868365  0.69831230     0.66950
H1154       H  0.05017680  0.74185098  0.72128464     0.15850
H1155       H  0.17326505  0.69673214  0.66864479     0.15560
N1156       N  0.14666551  0.62302037  0.69465154     0.74650
O1157       O  0.04527931  0.82850361  0.70493331    -0.38800
O1158       O  0.11083240  0.85333079  0.69688890    -0.38740
O1159       O  0.15468007  0.60102477  0.67503601    -0.39450
O1160       O  0.16405764  0.60805026  0.71392350    -0.39510
C1161       C  0.15997945  0.32924658  0.68618597    -0.11790
C1162       C  0.14341468  0.28155091  0.68347434     0.05210
C1163       C  0.10361179  0.26874951  0.69440022    -0.07080
C1164       C  0.07992481  0.30509060  0.70653271    -0.07820
C1165       C  0.09559029  0.35360398  0.70855406    -0.02380
C1166       C  0.13671507  0.36525598  0.69857657     0.04440
N1167       N  0.15575169  0.41322724  0.70095169     0.66950
H1168       H  0.19077293  0.33895389  0.67806554     0.15850
H1169       H  0.04913071  0.29522596  0.71456354     0.15560
N1170       N  0.08761769  0.21895436  0.69400243     0.74650
O1171       O  0.18738486  0.42009220  0.71538186    -0.38800
O1172       O  0.14779996  0.44493159  0.68509466    -0.38740
O1173       O  0.11368593  0.18376638  0.69673494    -0.39450
O1174       O  0.04716158  0.21031699  0.69421886    -0.39510
C1175       C  0.91078916  0.31312852  0.69572860    -0.11790
C1176       C  0.88688154  0.35127647  0.70629872     0.05210
C1177       C  0.84099680  0.35062937  0.70406198    -0.07080
C1178       C  0.82033687  0.31280576  0.69091319    -0.07820
C1179       C  0.84413136  0.27494303  0.68004798    -0.02380
C1180       C  0.89009306  0.27462254  0.68290132     0.04440
N1181       N  0.91609021  0.23491441  0.67382950     0.66950
H1182       H  0.94593342  0.31288329  0.69782876     0.15850
H1183       H  0.78520032  0.31351776  0.68889381     0.15560
N1184       N  0.81452270  0.38649164  0.71583405     0.74650
O1185       O  0.95357788  0.24345069  0.66567113    -0.38800
O1186       O  0.90396220  0.19091351  0.67654064    -0.38740
O1187       O  0.81397784  0.42990474  0.70814673    -0.39450
O1188       O  0.78420207  0.37226095  0.72932729    -0.39510
loop_ 
_geom_bond_atom_site_label_1 
_geom_bond_atom_site_label_2 
_geom_bond_distance 
_geom_bond_site_symmetry_2 
_ccdc_geom_bond_type 
O1          Zr13   2.392       .  S
O1            C3   1.279       .  A
O2          Zr39   2.463       .  S
O2            C3   1.293       .  A
C3         C1120   1.477       .  S
O4          Zr16   2.426       .  S
O4            C6   1.285       .  A
O5          Zr40   2.455       .  S
O5            C6   1.293       .  A
C6         C1134   1.482       .  S
O7          Zr16   2.443       .  S
O7            C9   1.288       .  A
O8          Zr39   2.422       .  S
O8            C9   1.287       .  A
C9         C1176   1.477       .  S
O10         Zr13   2.374       .  S
O10          C12   1.276       .  A
O11         Zr40   2.475       .  S
O11          C12   1.293       .  A
C12        C1106   1.497       .  S
Zr13         O14   2.434       .  S
Zr13         O15   2.435       .  S
Zr13         O19   2.356       .  S
Zr13         O20   2.372       .  S
Zr13         O43   2.360       .  S
Zr13         O45   2.356       .  S
O14          H57   0.990       .  S
O15          H56   0.990       .  S
O15          H60   0.990       .  S
Zr16         O17   2.436       .  S
Zr16         O18   2.436       .  S
Zr16         O20   2.372       .  S
Zr16         O19   2.358       .  S
Zr16         O44   2.369       .  S
Zr16         O46   2.370       .  S
O17          H58   0.990       .  S
O17          H61   0.990       .  S
O18          H51   0.990       .  S
O19         Zr39   2.378       .  S
O20         Zr40   2.395       .  S
O20          H47   0.966       .  S
O21         Zr33   2.410       .  S
O21          C23   1.281       .  A
O22         Zr40   2.461   1_455  S
O22          C23   1.292       .  A
C23        C1092   1.471       .  S
O24         Zr36   2.418       .  S
O24          C26   1.283       .  A
O25         Zr39   2.435   1_455  S
O25          C26   1.290       .  A
C26        C1165   1.485       .  S
O27         Zr36   2.427       .  S
O27          C29   1.285       .  A
O28         Zr40   2.440   1_455  S
O28          C29   1.291       .  A
C29        C1148   1.491       .  S
O30         Zr33   2.408       .  S
O30          C32   1.281       .  A
O31         Zr39   2.446   1_455  S
O31          C32   1.290       .  A
C32        C1078   1.465       .  S
Zr33         O34   2.437       .  S
Zr33         O35   2.434       .  S
Zr33         O41   2.373       .  S
Zr33         O42   2.364       .  S
Zr33         O45   2.363   1_455  S
Zr33         O43   2.360   1_455  S
O34          H54   0.989       .  S
O34          H59   0.990       .  S
O35          H55   0.990       .  S
Zr36         O37   2.432       .  S
Zr36         O38   2.434       .  S
Zr36         O42   2.360       .  S
Zr36         O41   2.353       .  S
Zr36         O46   2.364   1_455  S
Zr36         O44   2.362   1_455  S
O37          H53   0.990       .  S
O38          H52   0.990       .  S
O38          H62   0.990       .  S
Zr39         O42   2.378   1_655  S
Zr39         O44   2.395       .  S
Zr39         O45   2.391       .  S
Zr40         O41   2.393   1_655  S
Zr40         O43   2.398       .  S
Zr40         O46   2.397       .  S
O41          H49   0.962       .  S
O44          H48   0.966       .  S
O45          H50   0.966       .  S
C63        C1123   1.480       .  S
C63          C64   1.412       .  A
C63          C68   1.398       .  A
C64          C65   1.409       .  A
C64          H69   1.084       .  S
C65        C1050   1.502       .  S
C65          C66   1.408       .  A
C66          C67   1.407       .  A
C66          H70   1.084       .  S
C67        C1067   1.476       .  S
C67          C68   1.397       .  A
C68          H71   1.085       .  S
O72         Zr84   2.412       .  S
O72          C74   1.282       .  A
O73        Zr110   2.451       .  S
O73          C74   1.290       .  A
C74        C1064   1.474       .  S
O75         Zr87   2.407       .  S
O75          C77   1.282       .  A
O76        Zr111   2.445   1_565  S
O76          C77   1.290       .  A
C77         C966   1.470       .  S
O78         Zr87   2.403       .  S
O78          C80   1.282       .  A
O79        Zr110   2.442   1_565  S
O79          C80   1.289       .  A
C80         C980   1.473       .  S
O81         Zr84   2.393       .  S
O81          C83   1.280       .  A
O82        Zr111   2.461       .  S
O82          C83   1.292       .  A
C83         C952   1.479       .  S
Zr84         O85   2.434       .  S
Zr84         O86   2.435       .  S
Zr84         O90   2.364       .  S
Zr84         O91   2.357       .  S
Zr84        O114   2.367       .  S
Zr84        O116   2.356       .  S
O85         H128   0.990       .  S
O86         H127   0.990       .  S
O86         H131   0.990       .  S
Zr87         O88   2.435       .  S
Zr87         O89   2.433       .  S
Zr87         O91   2.359   1_565  S
Zr87         O90   2.370   1_565  S
Zr87        O115   2.366       .  S
Zr87        O117   2.365       .  S
O88         H129   0.990       .  S
O88         H132   0.990       .  S
O89         H122   0.990       .  S
O90        Zr110   2.373       .  S
O91        Zr111   2.381       .  S
O91         H118   0.966       .  S
O92        Zr104   2.458       .  S
O92          C94   1.290       .  A
O93        Zr111   2.424       .  S
O93          C94   1.289       .  A
C94        C1036   1.485       .  S
O95        Zr107   2.473       .  S
O95          C97   1.293       .  A
O96        Zr110   2.401   1_565  S
O96          C97   1.284       .  A
C97        C1008   1.492       .  S
O98        Zr107   2.447       .  S
O98         C100   1.288       .  A
O99        Zr111   2.447   1_565  S
O99         C100   1.293       .  A
C100       C1022   1.483       .  S
O101       Zr104   2.455       .  S
O101        C103   1.290       .  A
O102       Zr110   2.400       .  S
O102        C103   1.284       .  A
C103        C994   1.488       .  S
Zr104       O105   2.436       .  S
Zr104       O106   2.434       .  S
Zr104       O112   2.378       .  S
Zr104       O113   2.372       .  S
Zr104       O116   2.370       .  S
Zr104       O114   2.370       .  S
O105        H125   0.990       .  S
O105        H130   0.990       .  S
O106        H126   0.990       .  S
Zr107       O108   2.434       .  S
Zr107       O109   2.435       .  S
Zr107       O113   2.367   1_565  S
Zr107       O112   2.384   1_565  S
Zr107       O117   2.384       .  S
Zr107       O115   2.364       .  S
O108        H124   0.990       .  S
O109        H123   0.990       .  S
O109        H133   0.990       .  S
Zr110       O113   2.390       .  S
Zr110       O115   2.383   1_545  S
Zr110       O116   2.380       .  S
Zr111       O112   2.399       .  S
Zr111       O114   2.382       .  S
Zr111       O117   2.386   1_545  S
O112        H120   0.966       .  S
O115        H119   0.965       .  S
O116        H121   0.964       .  S
C134       C1095   1.473       .  S
C134        C135   1.393       .  A
C134        C139   1.408       .  A
C135        C136   1.396       .  A
C135        H140   1.085       .  S
C136        C969   1.484       .  S
C136        C137   1.411       .  A
C137        C138   1.412       .  A
C137        H141   1.083       .  S
C138        C938   1.507       .  S
C138        C139   1.412       .  A
C139        H142   1.083       .  S
C143       C1109   1.513       .  S
C143        C144   1.410       .  A
C143        C148   1.423       .  A
C144        C145   1.396       .  A
C144        H149   1.081       .  S
C145        C983   1.475       .  S
C145        C146   1.399       .  A
C146        C147   1.396       .  A
C146        H150   1.084       .  S
C147        C924   1.494       .  S
C147        C148   1.408       .  A
C148        H151   1.078       .  S
C152       C1081   1.476       .  S
C152        C153   1.395       .  A
C152        C157   1.411       .  A
C153        C154   1.390       .  A
C153        H158   1.085       .  S
C154        C955   1.481       .  S
C154        C155   1.407       .  A
C155        C156   1.417       .  A
C155        H159   1.081       .  S
C156        C910   1.522       .  S
C156        C157   1.418       .  A
C157        H160   1.081       .  S
C161       C1039   1.491       .  S
C161        C162   1.402       .  A
C161        C166   1.412       .  A
C162        C163   1.399       .  A
C162        H167   1.084       .  S
C163       C1162   1.474       .  S
C163        C164   1.400       .  A
C164        C165   1.405       .  A
C164        H168   1.082       .  S
C165        C899   1.501       .  S
C165        C166   1.409       .  A
C166        H169   1.082       .  S
C170        C885   1.494       .  S
C170        C171   1.405       .  A
C170        C175   1.409       .  A
C171        C172   1.399       .  A
C171        H176   1.084       .  S
C172       C1151   1.472       .  S
C172        C173   1.398       .  A
C173        C174   1.404       .  A
C173        H177   1.083       .  S
C174       C1025   1.501       .  S
C174        C175   1.413       .  A
C175        H178   1.081       .  S
C179        C997   1.474       .  S
C179        C180   1.402       .  A
C179        C184   1.399       .  A
C180        C181   1.404       .  A
C180        H185   1.084       .  S
C181       C1179   1.484       .  S
C181        C182   1.402       .  A
C182        C183   1.400       .  A
C182        H186   1.084       .  S
C183        C871   1.471       .  S
C183        C184   1.401       .  A
C184        H187   1.084       .  S
C188        C854   1.477       .  S
C188        C189   1.400       .  A
C188        C193   1.403       .  A
C189        C190   1.402       .  A
C189        H194   1.084       .  S
C190       C1011   1.480       .  S
C190        C191   1.404       .  A
C191        C192   1.409       .  A
C191        H195   1.083       .  S
C192       C1137   1.497       .  S
C192        C193   1.410       .  A
C193        H196   1.083       .  S
O197       Zr209   2.400       .  S
O197        C199   1.281       .  A
O198       Zr235   2.485       .  S
O198        C199   1.299       .  A
C199        C927   1.485       .  S
O200       Zr212   2.427   1_554  S
O200        C202   1.285       .  A
O201       Zr236   2.440       .  S
O201        C202   1.290       .  A
C202        C843   1.469       .  S
O203       Zr212   2.431       .  S
O203        C205   1.287       .  A
O204       Zr235   2.471       .  S
O204        C205   1.296       .  A
C205       C1053   1.502       .  S
O206       Zr209   2.432   1_554  S
O206        C208   1.285       .  A
O207       Zr236   2.445       .  S
O207        C208   1.292       .  A
C208        C812   1.501       .  S
Zr209       O210   2.434       .  S
Zr209       O211   2.436       .  S
Zr209       O215   2.371       .  S
Zr209       O216   2.355   1_556  S
Zr209       O239   2.359   1_556  S
Zr209       O241   2.371       .  S
O210        H253   0.990       .  S
O211        H252   0.990       .  S
O211        H256   0.990       .  S
Zr212       O213   2.437       .  S
Zr212       O214   2.436       .  S
Zr212       O216   2.372   1_556  S
Zr212       O215   2.363       .  S
Zr212       O240   2.373       .  S
Zr212       O242   2.374   1_556  S
O213        H254   0.990   1_556  S
O213        H257   0.990       .  S
O214        H247   0.990       .  S
O215       Zr235   2.390       .  S
O216       Zr236   2.388       .  S
O216        H243   0.965       .  S
O217       Zr229   2.440   1_554  S
O217        C219   1.287       .  A
O218       Zr236   2.448       .  S
O218        C219   1.292       .  A
C219        C798   1.503       .  S
O220       Zr232   2.422       .  S
O220        C222   1.284       .  A
O221       Zr235   2.494       .  S
O221        C222   1.301       .  A
C222        C913   1.494       .  S
O223       Zr232   2.451   1_554  S
O223        C225   1.290       .  A
O224       Zr236   2.442       .  S
O224        C225   1.291       .  A
C225        C826   1.490       .  S
O226       Zr229   2.428       .  S
O226        C228   1.286       .  A
O227       Zr235   2.468       .  S
O227        C228   1.295       .  A
C228        C941   1.488       .  S
Zr229       O230   2.435       .  S
Zr229       O231   2.434       .  S
Zr229       O237   2.367   1_556  S
Zr229       O238   2.366       .  S
Zr229       O241   2.372       .  S
Zr229       O239   2.370   1_556  S
O230        H250   0.990   1_556  S
O230        H255   0.990       .  S
O231        H251   0.990       .  S
Zr232       O233   2.434       .  S
Zr232       O234   2.434       .  S
Zr232       O238   2.376       .  S
Zr232       O237   2.367   1_556  S
Zr232       O242   2.364   1_556  S
Zr232       O240   2.383       .  S
O233        H249   0.990       .  S
O234        H248   0.990   1_556  S
O234        H258   0.990       .  S
Zr235       O238   2.395       .  S
Zr235       O240   2.402       .  S
Zr235       O241   2.401       .  S
Zr236       O237   2.387       .  S
Zr236       O239   2.384       .  S
Zr236       O242   2.390       .  S
O237        H245   0.966       .  S
O240        H244   0.966       .  S
O241        H246   0.966       .  S
C259        C784   1.488       .  S
C259        C260   1.410       .  A
C259        C264   1.398       .  A
C260        C261   1.410       .  A
C260        H265   1.083       .  S
C261        C801   1.481       .  S
C261        C262   1.405       .  A
C262        C263   1.400       .  A
C262        H266   1.084       .  S
C263        C773   1.476       .  S
C263        C264   1.400       .  A
C264        H267   1.085       .  S
C268        C759   1.472       .  S
C268        C269   1.400       .  A
C268        C273   1.399       .  A
C269        C270   1.409       .  A
C269        H274   1.083       .  S
C270        C840   1.508       .  S
C270        C271   1.411       .  A
C271        C272   1.415       .  A
C271        H275   1.077       .  S
C272        C745   1.494       .  S
C272        C273   1.401       .  A
C273        H276   1.084       .  S
C277        C717   1.489       .  S
C277        C278   1.409       .  A
C277        C282   1.407       .  A
C278        C279   1.402       .  A
C278        H283   1.084       .  S
C279        C815   1.479       .  S
C279        C280   1.400       .  A
C280        C281   1.403       .  A
C280        H284   1.084       .  S
C281        C728   1.474       .  S
C281        C282   1.400       .  A
C282        H285   1.084       .  S
O286       Zr298   2.409       .  S
O286        C288   1.281       .  A
O287       Zr324   2.454   1_565  S
O287        C288   1.292       .  A
C288        C787   1.470       .  S
O289       Zr301   2.445       .  S
O289        C291   1.289       .  A
O290       Zr325   2.413   1_565  S
O290        C291   1.284       .  A
C291        C658   1.478       .  S
O292       Zr301   2.435       .  S
O292        C294   1.286       .  A
O293       Zr324   2.432   1_565  S
O293        C294   1.290       .  A
C294        C700   1.495       .  S
O295       Zr298   2.416       .  S
O295        C297   1.284       .  A
O296       Zr325   2.453   1_565  S
O296        C297   1.292       .  A
C297        C731   1.475       .  S
Zr298       O299   2.433       .  S
Zr298       O300   2.435       .  S
Zr298       O304   2.369       .  S
Zr298       O305   2.359       .  S
Zr298       O328   2.363   1_565  S
Zr298       O330   2.364   1_565  S
O299        H342   0.990       .  S
O300        H341   0.990       .  S
O300        H345   0.990       .  S
Zr301       O302   2.436       .  S
Zr301       O303   2.435       .  S
Zr301       O305   2.356       .  S
Zr301       O304   2.376       .  S
Zr301       O329   2.364   1_565  S
Zr301       O331   2.369   1_565  S
O302        H343   0.990       .  S
O302        H346   0.990       .  S
O303        H336   0.990       .  S
O304       Zr324   2.388   1_565  S
O305       Zr325   2.387   1_565  S
O305        H332   0.963       .  S
O306       Zr318   2.418       .  S
O306        C308   1.283       .  A
O307       Zr325   2.455       .  S
O307        C308   1.289       .  A
C308        C742   1.492       .  S
O309       Zr321   2.430       .  S
O309        C311   1.287       .  A
O310       Zr324   2.430       .  S
O310        C311   1.288       .  A
C311        C689   1.482       .  S
O312       Zr321   2.429       .  S
O312        C314   1.286       .  A
O313       Zr325   2.428       .  S
O313        C314   1.287       .  A
C314        C672   1.484       .  S
O315       Zr318   2.403       .  S
O315        C317   1.281       .  A
O316       Zr324   2.460       .  S
O316        C317   1.293       .  A
C317        C644   1.474       .  S
Zr318       O319   2.437       .  S
Zr318       O320   2.434       .  S
Zr318       O326   2.362       .  S
Zr318       O327   2.367       .  S
Zr318       O330   2.361       .  S
Zr318       O328   2.363       .  S
O319        H339   0.989       .  S
O319        H344   0.990       .  S
O320        H340   0.990       .  S
Zr321       O322   2.434       .  S
Zr321       O323   2.435       .  S
Zr321       O327   2.369       .  S
Zr321       O326   2.371       .  S
Zr321       O331   2.368       .  S
Zr321       O329   2.365       .  S
O322        H338   0.990       .  S
O323        H337   0.990       .  S
O323        H347   0.990       .  S
Zr324       O327   2.380       .  S
Zr324       O329   2.393       .  S
Zr324       O330   2.384       .  S
Zr325       O326   2.386       .  S
Zr325       O328   2.382       .  S
Zr325       O331   2.391       .  S
O326        H334   0.966       .  S
O329        H333   0.966       .  S
O330        H335   0.966       .  S
O348       Zr360   2.456   1_455  S
O348        C350   1.291       .  A
O349       Zr386   2.416       .  S
O349        C350   1.284       .  A
C350        C770   1.483       .  S
O351       Zr363   2.413       .  S
O351        C353   1.284       .  A
O352       Zr387   2.452       .  S
O352        C353   1.291       .  A
C353        C602   1.478       .  S
O354       Zr363   2.407   1_455  S
O354        C356   1.281       .  A
O355       Zr386   2.451       .  S
O355        C356   1.291       .  A
C356        C588   1.469       .  S
O357       Zr360   2.449       .  S
O357        C359   1.290       .  A
O358       Zr387   2.419       .  S
O358        C359   1.286       .  A
C359        C714   1.478       .  S
Zr360       O361   2.434       .  S
Zr360       O362   2.436       .  S
Zr360       O366   2.378   1_655  S
Zr360       O367   2.369       .  S
Zr360       O390   2.376       .  S
Zr360       O392   2.364   1_655  S
O361        H404   0.990   1_655  S
O362        H403   0.990   1_655  S
O362        H407   0.990   1_655  S
Zr363       O364   2.433   1_655  S
Zr363       O365   2.434       .  S
Zr363       O367   2.367       .  S
Zr363       O366   2.373   1_655  S
Zr363       O391   2.364   1_655  S
Zr363       O393   2.369       .  S
O364        H405   0.989   1_455  S
O364        H408   0.990   1_455  S
O365        H398   0.990   1_655  S
O366       Zr386   2.379       .  S
O367       Zr387   2.384       .  S
O367        H394   0.965       .  S
O368       Zr380   2.453       .  S
O368        C370   1.290       .  A
O369       Zr387   2.414       .  S
O369        C370   1.286       .  A
C370        C756   1.494       .  S
O371       Zr383   2.419   1_455  S
O371        C373   1.285       .  A
O372       Zr386   2.422       .  S
O372        C373   1.284       .  A
C373        C633   1.466       .  S
O374       Zr383   2.421       .  S
O374        C376   1.283       .  A
O375       Zr387   2.447       .  S
O375        C376   1.290       .  A
C376        C616   1.469       .  S
O377       Zr380   2.452   1_455  S
O377        C379   1.290       .  A
O378       Zr386   2.418       .  S
O378        C379   1.287       .  A
C379        C574   1.486       .  S
Zr380       O381   2.434       .  S
Zr380       O382   2.434       .  S
Zr380       O388   2.362       .  S
Zr380       O389   2.371   1_655  S
Zr380       O392   2.368   1_655  S
Zr380       O390   2.373       .  S
O381        H401   0.990       .  S
O381        H406   0.990       .  S
O382        H402   0.990       .  S
Zr383       O384   2.434       .  S
Zr383       O385   2.434       .  S
Zr383       O389   2.370   1_655  S
Zr383       O388   2.358       .  S
Zr383       O393   2.371       .  S
Zr383       O391   2.353   1_655  S
O384        H400   0.990       .  S
O385        H399   0.990       .  S
O385        H409   0.990       .  S
Zr386       O389   2.382       .  S
Zr386       O391   2.380       .  S
Zr386       O392   2.389       .  S
Zr387       O388   2.380       .  S
Zr387       O390   2.393       .  S
Zr387       O393   2.381       .  S
O388        H396   0.962       .  S
O391        H395   0.966       .  S
O392        H397   0.965       .  S
C410        C829   1.502       .  S
C410        C411   1.409       .  A
C410        C415   1.414       .  A
C411        C412   1.403       .  A
C411        H416   1.084       .  S
C412        C577   1.483       .  S
C412        C413   1.399       .  A
C413        C414   1.400       .  A
C413        H417   1.084       .  S
C414        C647   1.494       .  S
C414        C415   1.415       .  A
C415        H418   1.083       .  S
C419        C686   1.480       .  S
C419        C420   1.404       .  A
C419        C424   1.400       .  A
C420        C421   1.406       .  A
C420        H425   1.084       .  S
C421        C560   1.486       .  S
C421        C422   1.402       .  A
C422        C423   1.401       .  A
C422        H426   1.084       .  S
C423        C630   1.467       .  S
C423        C424   1.395       .  A
C424        H427   1.084       .  S
C428        C675   1.480       .  S
C428        C429   1.401       .  A
C428        C433   1.403       .  A
C429        C430   1.399       .  A
C429        H434   1.084       .  S
C430        C619   1.480       .  S
C430        C431   1.407       .  A
C431        C432   1.410       .  A
C431        H435   1.083       .  S
C432        C546   1.498       .  S
C432        C433   1.406       .  A
C433        H436   1.083       .  S
C437        C591   1.488       .  S
C437        C438   1.404       .  A
C437        C442   1.410       .  A
C438        C439   1.398       .  A
C438        H443   1.083       .  S
C439        C703   1.474       .  S
C439        C440   1.397       .  A
C440        C441   1.405       .  A
C440        H444   1.084       .  S
C441        C532   1.488       .  S
C441        C442   1.407       .  A
C442        H445   1.083       .  S
C446        C661   1.472       .  S
C446        C447   1.400       .  A
C446        C451   1.401       .  A
C447        C448   1.403       .  A
C447        H452   1.084       .  S
C448        C518   1.489       .  S
C448        C449   1.405       .  A
C449        C450   1.407       .  A
C449        H453   1.084       .  S
C450        C605   1.478       .  S
C450        C451   1.399       .  A
C451        H454   1.084       .  S
O455       Zr467   2.450       .  S
O455        C457   1.289       .  A
O456       Zr493   2.421   1_465  S
O456        C457   1.287       .  A
C457        C882   1.491       .  S
O458       Zr470   2.420       .  S
O458        C460   1.284       .  A
O459       Zr494   2.443   1_455  S
O459        C460   1.291       .  A
C460        C563   1.475       .  S
O461       Zr470   2.444       .  S
O461        C463   1.288       .  A
O462       Zr493   2.414   1_455  S
O462        C463   1.286       .  A
C463        C896   1.479       .  S
O464       Zr467   2.432       .  S
O464        C466   1.287       .  A
O465       Zr494   2.438   1_465  S
O465        C466   1.288       .  A
C466        C535   1.489       .  S
Zr467       O468   2.433       .  S
Zr467       O469   2.436       .  S
Zr467       O473   2.367   1_565  S
Zr467       O474   2.377   1_565  S
Zr467       O497   2.372   1_455  S
Zr467       O499   2.370   1_455  S
O468        H511   0.990       .  S
O469        H510   0.990       .  S
O469        H514   0.990       .  S
Zr470       O471   2.436       .  S
Zr470       O472   2.436       .  S
Zr470       O474   2.380       .  S
Zr470       O473   2.364       .  S
Zr470       O498   2.369   1_455  S
Zr470       O500   2.375   1_455  S
O471        H512   0.990       .  S
O471        H515   0.990       .  S
O472        H505   0.990       .  S
O473       Zr493   2.373   1_455  S
O474       Zr494   2.390   1_455  S
O474        H501   0.966       .  S
O475       Zr487   2.427       .  S
O475        C477   1.286       .  A
O476       Zr494   2.441   1_565  S
O476        C477   1.290       .  A
C477        C521   1.476       .  S
O478       Zr490   2.423       .  S
O478        C480   1.283       .  A
O479       Zr493   2.419       .  S
O479        C480   1.287       .  A
C480        C868   1.473       .  S
O481       Zr490   2.439       .  S
O481        C483   1.287       .  A
O482       Zr494   2.439       .  S
O482        C483   1.290       .  A
C483        C549   1.482       .  S
O484       Zr487   2.453       .  S
O484        C486   1.289       .  A
O485       Zr493   2.416   1_565  S
O485        C486   1.286       .  A
C486        C857   1.499       .  S
Zr487       O488   2.434       .  S
Zr487       O489   2.434       .  S
Zr487       O495   2.379   1_565  S
Zr487       O496   2.359   1_565  S
Zr487       O499   2.366       .  S
Zr487       O497   2.375       .  S
O488        H508   0.989       .  S
O488        H513   0.990       .  S
O489        H509   0.990       .  S
Zr490       O491   2.434       .  S
Zr490       O492   2.434       .  S
Zr490       O496   2.371       .  S
Zr490       O495   2.367       .  S
Zr490       O500   2.364       .  S
Zr490       O498   2.371       .  S
O491        H507   0.990       .  S
O492        H506   0.990       .  S
O492        H516   0.990       .  S
Zr493       O496   2.373       .  S
Zr493       O498   2.380       .  S
Zr493       O499   2.378   1_545  S
Zr494       O495   2.389       .  S
Zr494       O497   2.387   1_545  S
Zr494       O500   2.384       .  S
O495        H503   0.966       .  S
O498        H502   0.966       .  S
O499        H504   0.966       .  S
C517        C518   1.403       .  A
C517        C522   1.401       .  A
C517        H524   1.083       .  S
C518        C519   1.419       .  A
C519        C520   1.405       .  A
C519        N526   1.436       .  S
C520        C521   1.401       .  A
C520        H525   1.084       .  S
C521        C522   1.415       .  A
C522        N523   1.439       .  S
N523        O527   1.263       .  A
N523        O528   1.263       .  A
N526        O529   1.262       .  A
N526        O530   1.263       .  A
C531        C532   1.403       .  A
C531        C536   1.401       .  A
C531        H538   1.084       .  S
C532        C533   1.415       .  A
C533        C534   1.406       .  A
C533        N540   1.438       .  S
C534        C535   1.409       .  A
C534        H539   1.084       .  S
C535        C536   1.415       .  A
C536        N537   1.433       .  S
N537        O541   1.261       .  A
N537        O542   1.262       .  A
N540        O543   1.262       .  A
N540        O544   1.263       .  A
C545        C546   1.405       .  A
C545        C550   1.407       .  A
C545        H552   1.083       .  S
C546        C547   1.419       .  A
C547        C548   1.403       .  A
C547        N554   1.437       .  S
C548        C549   1.402       .  A
C548        H553   1.084       .  S
C549        C550   1.422       .  A
C550        N551   1.443       .  S
N551        O555   1.263       .  A
N551        O556   1.259       .  A
N554        O557   1.263       .  A
N554        O558   1.263       .  A
C559        C560   1.404       .  A
C559        C564   1.407       .  A
C559        H566   1.083       .  S
C560        C561   1.415       .  A
C561        C562   1.398       .  A
C561        N568   1.433       .  S
C562        C563   1.397       .  A
C562        H567   1.079       .  S
C563        C564   1.418       .  A
C564        N565   1.442       .  S
N565        O569   1.263       .  A
N565        O570   1.263       .  A
N568        O571   1.262       .  A
N568        O572   1.262       .  A
C573        C574   1.407       .  A
C573        C578   1.402       .  A
C573        H580   1.084       .  S
C574        C575   1.416       .  A
C575        C576   1.403       .  A
C575        N582   1.434       .  S
C576        C577   1.404       .  A
C576        H581   1.084       .  S
C577        C578   1.415       .  A
C578        N579   1.439       .  S
N579        O583   1.263       .  A
N579        O584   1.263       .  A
N582        O585   1.263       .  A
N582        O586   1.262       .  A
C587        C588   1.394       .  A
C587        C592   1.396       .  A
C587        H594   1.077       .  S
C588        C589   1.416       .  A
C589        C590   1.408       .  A
C589        N596   1.443       .  S
C590        C591   1.405       .  A
C590        H595   1.083       .  S
C591        C592   1.415       .  A
C592        N593   1.431       .  S
N593        O597   1.262       .  A
N593        O598   1.261       .  A
N596        O599   1.263       .  A
N596        O600   1.263       .  A
C601        C602   1.405       .  A
C601        C606   1.414       .  A
C601        H608   1.083       .  S
C602        C603   1.414       .  A
C603        C604   1.391       .  A
C603        N610   1.438       .  S
C604        C605   1.397       .  A
C604        H609   1.083       .  S
C605        C606   1.420       .  A
C606        N607   1.441       .  S
N607        O611   1.263       .  A
N607        O612   1.262       .  A
N610        O613   1.262       .  A
N610        O614   1.263       .  A
C615        C616   1.402       .  A
C615        C620   1.408       .  A
C615        H622   1.084       .  S
C616        C617   1.413       .  A
C617        C618   1.400       .  A
C617        N624   1.437       .  S
C618        C619   1.402       .  A
C618        H623   1.084       .  S
C619        C620   1.416       .  A
C620        N621   1.443       .  S
N621        O625   1.263       .  A
N621        O626   1.263       .  A
N624        O627   1.261       .  A
N624        O628   1.262       .  A
C629        C630   1.402       .  A
C629        C634   1.407       .  A
C629        H636   1.084       .  S
C630        C631   1.410       .  A
C631        C632   1.393       .  A
C631        N638   1.438       .  S
C632        C633   1.401       .  A
C632        H637   1.085       .  S
C633        C634   1.415       .  A
C634        N635   1.440       .  S
N635        O639   1.263       .  A
N635        O640   1.262       .  A
N638        O641   1.262       .  A
N638        O642   1.262       .  A
C643        C644   1.405       .  A
C643        C648   1.404       .  A
C643        H650   1.084       .  S
C644        C645   1.414       .  A
C645        C646   1.406       .  A
C645        N652   1.440       .  S
C646        C647   1.410       .  A
C646        H651   1.083       .  S
C647        C648   1.413       .  A
C648        N649   1.437       .  S
N649        O653   1.263       .  A
N649        O654   1.262       .  A
N652        O655   1.262       .  A
N652        O656   1.263       .  A
C657        C658   1.406       .  A
C657        C662   1.405       .  A
C657        H664   1.084       .  S
C658        C659   1.415       .  A
C659        C660   1.395       .  A
C659        N666   1.433       .  S
C660        C661   1.399       .  A
C660        H665   1.085       .  S
C661        C662   1.414       .  A
C662        N663   1.442       .  S
N663        O667   1.263       .  A
N663        O668   1.263       .  A
N666        O669   1.262       .  A
N666        O670   1.262       .  A
C671        C672   1.409       .  A
C671        C676   1.405       .  A
C671        H678   1.083       .  S
C672        C673   1.412       .  A
C673        C674   1.396       .  A
C673        N680   1.431       .  S
C674        C675   1.404       .  A
C674        H679   1.083       .  S
C675        C676   1.414       .  A
C676        N677   1.441       .  S
N677        O681   1.263       .  A
N677        O682   1.263       .  A
N680        O683   1.262       .  A
N680        O684   1.262       .  A
C685        C686   1.403       .  A
C685        C690   1.396       .  A
C685        H692   1.083       .  S
C686        C687   1.415       .  A
C687        C688   1.405       .  A
C687        N694   1.441       .  S
C688        C689   1.408       .  A
C688        H693   1.083       .  S
C689        C690   1.412       .  A
C690        N691   1.431       .  S
N691        O695   1.262       .  A
N691        O696   1.262       .  A
N694        O697   1.263       .  A
N694        O698   1.263       .  A
C699        C700   1.407       .  A
C699        C704   1.403       .  A
C699        H706   1.082       .  S
C700        C701   1.422       .  A
C701        C702   1.402       .  A
C701        N708   1.434       .  S
C702        C703   1.398       .  A
C702        H707   1.084       .  S
C703        C704   1.417       .  A
C704        N705   1.444       .  S
N705        O709   1.263       .  A
N705        O710   1.262       .  A
N708        O711   1.262       .  A
N708        O712   1.262       .  A
C713        C714   1.404       .  A
C713        C718   1.408       .  A
C713        H720   1.084       .  S
C714        C715   1.409       .  A
C715        C716   1.396       .  A
C715        N722   1.430       .  S
C716        C717   1.406       .  A
C716        H721   1.084       .  S
C717        C718   1.420       .  A
C718        N719   1.439       .  S
N719        O723   1.263       .  A
N719        O724   1.263       .  A
N722        O725   1.262       .  A
N722        O726   1.262       .  A
C727        C728   1.397       .  A
C727        C732   1.396       .  A
C727        H734   1.084       .  S
C728        C729   1.420       .  A
C729        C730   1.412       .  A
C729        N736   1.443       .  S
C730        C731   1.402       .  A
C730        H735   1.083       .  S
C731        C732   1.416       .  A
C732        N733   1.439       .  S
N733        O737   1.263       .  A
N733        O738   1.262       .  A
N736        O739   1.262       .  A
N736        O740   1.263       .  A
C741        C742   1.404       .  A
C741        C746   1.388       .  A
C741        H748   1.080       .  S
C742        C743   1.418       .  A
C743        C744   1.419       .  A
C743        N750   1.437       .  S
C744        C745   1.413       .  A
C744        H749   1.083       .  S
C745        C746   1.410       .  A
C746        N747   1.437       .  S
N747        O751   1.263       .  A
N747        O752   1.263       .  A
N750        O753   1.262       .  A
N750        O754   1.263       .  A
C755        C756   1.411       .  A
C755        C760   1.405       .  A
C755        H762   1.082       .  S
C756        C757   1.417       .  A
C757        C758   1.399       .  A
C757        N764   1.430       .  S
C758        C759   1.399       .  A
C758        H763   1.084       .  S
C759        C760   1.413       .  A
C760        N761   1.444       .  S
N761        O765   1.263       .  A
N761        O766   1.262       .  A
N764        O767   1.262       .  A
N764        O768   1.262       .  A
C769        C770   1.409       .  A
C769        C774   1.412       .  A
C769        H776   1.084       .  S
C770        C771   1.414       .  A
C771        C772   1.393       .  A
C771        N778   1.432       .  S
C772        C773   1.396       .  A
C772        H777   1.085       .  S
C773        C774   1.415       .  A
C774        N775   1.442       .  S
N775        O779   1.263       .  A
N775        O780   1.262       .  A
N778        O781   1.262       .  A
N778        O782   1.262       .  A
C783        C784   1.408       .  A
C783        C788   1.404       .  A
C783        H790   1.084       .  S
C784        C785   1.414       .  A
C785        C786   1.408       .  A
C785        N792   1.441       .  S
C786        C787   1.405       .  A
C786        H791   1.084       .  S
C787        C788   1.412       .  A
C788        N789   1.443       .  S
N789        O793   1.263       .  A
N789        O794   1.262       .  A
N792        O795   1.263       .  A
N792        O796   1.263       .  A
C797        C798   1.410       .  A
C797        C802   1.412       .  A
C797        H804   1.083       .  S
C798        C799   1.422       .  A
C799        C800   1.400       .  A
C799        N806   1.430       .  S
C800        C801   1.397       .  A
C800        H805   1.085       .  S
C801        C802   1.417       .  A
C802        N803   1.444       .  S
N803        O807   1.263       .  A
N803        O808   1.262       .  A
N806        O809   1.262       .  A
N806        O810   1.262       .  A
C811        C812   1.409       .  A
C811        C816   1.409       .  A
C811        H818   1.083       .  S
C812        C813   1.424       .  A
C813        C814   1.400       .  A
C813        N820   1.432       .  S
C814        C815   1.396       .  A
C814        H819   1.084       .  S
C815        C816   1.416       .  A
C816        N817   1.442       .  S
N817        O821   1.263       .  A
N817        O822   1.262       .  A
N820        O823   1.262       .  A
N820        O824   1.262       .  A
C825        C826   1.406       .  A
C825        C830   1.408       .  A
C825        H832   1.084       .  S
C826        C827   1.416       .  A
C827        C828   1.408       .  A
C827        N834   1.438       .  S
C828        C829   1.409       .  A
C828        H833   1.083       .  S
C829        C830   1.417       .  A
C830        N831   1.435       .  S
N831        O835   1.262       .  A
N831        O836   1.263       .  A
N834        O837   1.262       .  A
N834        O838   1.263       .  A
C839        C840   1.413       .  A
C839        C844   1.409       .  A
C839        H846   1.082       .  S
C840        C841   1.422       .  A
C841        C842   1.397       .  A
C841        N848   1.424       .  S
C842        C843   1.391       .  A
C842        H847   1.085       .  S
C843        C844   1.413       .  A
C844        N845   1.442       .  S
N845        O849   1.263       .  A
N845        O850   1.263       .  A
N848        O851   1.262       .  A
N848        O852   1.263       .  A
C853        C854   1.400       .  A
C853        C858   1.404       .  A
C853        H860   1.084       .  S
C854        C855   1.415       .  A
C855        C856   1.405       .  A
C855        N862   1.445       .  S
C856        C857   1.410       .  A
C856        H861   1.083       .  S
C857        C858   1.420       .  A
C858        N859   1.432       .  S
N859        O863   1.262       .  A
N859        O864   1.262       .  A
N862        O865   1.262       .  A
N862        O866   1.263       .  A
C867        C868   1.402       .  A
C867        C872   1.397       .  A
C867        H874   1.084       .  S
C868        C869   1.414       .  A
C869        C870   1.399       .  A
C869        N876   1.432       .  S
C870        C871   1.401       .  A
C870        H875   1.084       .  S
C871        C872   1.413       .  A
C872        N873   1.437       .  S
N873        O877   1.262       .  A
N873        O878   1.262       .  A
N876        O879   1.262       .  A
N876        O880   1.262       .  A
C881        C882   1.405       .  A
C881        C886   1.401       .  A
C881        H888   1.084       .  S
C882        C883   1.418       .  A
C883        C884   1.407       .  A
C883        N890   1.436       .  S
C884        C885   1.406       .  A
C884        H889   1.083       .  S
C885        C886   1.417       .  A
C886        N887   1.436       .  S
N887        O891   1.262       .  A
N887        O892   1.263       .  A
N890        O893   1.263       .  A
N890        O894   1.262       .  A
C895        C896   1.399       .  A
C895        C900   1.397       .  A
C895        H902   1.084       .  S
C896        C897   1.416       .  A
C897        C898   1.409       .  A
C897        N904   1.441       .  S
C898        C899   1.410       .  A
C898        H903   1.082       .  S
C899        C900   1.419       .  A
C900        N901   1.432       .  S
N901        O905   1.263       .  A
N901        O906   1.261       .  A
N904        O907   1.263       .  A
N904        O908   1.263       .  A
C909        C910   1.414       .  A
C909        C914   1.408       .  A
C909        H916   1.079       .  S
C910        C911   1.425       .  A
C911        C912   1.414       .  A
C911        N918   1.436       .  S
C912        C913   1.406       .  A
C912        H917   1.084       .  S
C913        C914   1.411       .  A
C914        N915   1.437       .  S
N915        O919   1.263       .  A
N915        O920   1.263       .  A
N918        O921   1.263       .  A
N918        O922   1.263       .  A
C923        C924   1.409       .  A
C923        C928   1.413       .  A
C923        H930   1.082       .  S
C924        C925   1.415       .  A
C925        C926   1.404       .  A
C925        N932   1.441       .  S
C926        C927   1.407       .  A
C926        H931   1.084       .  S
C927        C928   1.416       .  A
C928        N929   1.440       .  S
N929        O933   1.263       .  A
N929        O934   1.262       .  A
N932        O935   1.263       .  A
N932        O936   1.263       .  A
C937        C938   1.412       .  A
C937        C942   1.414       .  A
C937        H944   1.083       .  S
C938        C939   1.418       .  A
C939        C940   1.405       .  A
C939        N946   1.436       .  S
C940        C941   1.405       .  A
C940        H945   1.085       .  S
C941        C942   1.417       .  A
C942        N943   1.441       .  S
N943        O947   1.263       .  A
N943        O948   1.261       .  A
N946        O949   1.262       .  A
N946        O950   1.263       .  A
C951        C952   1.405       .  A
C951        C956   1.391       .  A
C951        H958   1.085       .  S
C952        C953   1.416       .  A
C953        C954   1.414       .  A
C953        N960   1.439       .  S
C954        C955   1.409       .  A
C954        H959   1.083       .  S
C955        C956   1.410       .  A
C956        N957   1.439       .  S
N957        O961   1.263       .  A
N957        O962   1.263       .  A
N960        O963   1.262       .  A
N960        O964   1.263       .  A
C965        C966   1.406       .  A
C965        C970   1.400       .  A
C965        H972   1.084       .  S
C966        C967   1.414       .  A
C967        C968   1.405       .  A
C967        N974   1.442       .  S
C968        C969   1.409       .  A
C968        H973   1.083       .  S
C969        C970   1.410       .  A
C970        N971   1.439       .  S
N971        O975   1.263       .  A
N971        O976   1.262       .  A
N974        O977   1.261       .  A
N974        O978   1.263       .  A
C979        C980   1.402       .  A
C979        C984   1.407       .  A
C979        H986   1.084       .  S
C980        C981   1.416       .  A
C981        C982   1.390       .  A
C981        N988   1.438       .  S
C982        C983   1.397       .  A
C982        H987   1.084       .  S
C983        C984   1.419       .  A
C984        N985   1.439       .  S
N985        O989   1.263       .  A
N985        O990   1.262       .  A
N988        O991   1.262       .  A
N988        O992   1.263       .  A
C993        C994   1.409       .  A
C993        C998   1.398       .  A
C993       H1000   1.083       .  S
C994        C995   1.416       .  A
C995        C996   1.402       .  A
C995       N1002   1.432       .  S
C996        C997   1.402       .  A
C996       H1001   1.084       .  S
C997        C998   1.411       .  A
C998        N999   1.441       .  S
N999       O1003   1.263       .  A
N999       O1004   1.262       .  A
N1002      O1005   1.262       .  A
N1002      O1006   1.262       .  A
C1007      C1008   1.410       .  A
C1007      C1012   1.403       .  A
C1007      H1014   1.084       .  S
C1008      C1009   1.415       .  A
C1009      C1010   1.407       .  A
C1009      N1016   1.433       .  S
C1010      C1011   1.404       .  A
C1010      H1015   1.084       .  S
C1011      C1012   1.413       .  A
C1012      N1013   1.442       .  S
N1013      O1017   1.263       .  A
N1013      O1018   1.263       .  A
N1016      O1019   1.262       .  A
N1016      O1020   1.262       .  A
C1021      C1022   1.393       .  A
C1021      C1026   1.394       .  A
C1021      H1028   1.066       .  S
C1022      C1023   1.419       .  A
C1023      C1024   1.416       .  A
C1023      N1030   1.447       .  S
C1024      C1025   1.415       .  A
C1024      H1029   1.082       .  S
C1025      C1026   1.414       .  A
C1026      N1027   1.435       .  S
N1027      O1031   1.263       .  A
N1027      O1032   1.263       .  A
N1030      O1033   1.262       .  A
N1030      O1034   1.263       .  A
C1035      C1036   1.403       .  A
C1035      C1040   1.416       .  A
C1035      H1042   1.083       .  S
C1036      C1037   1.403       .  A
C1037      C1038   1.390       .  A
C1037      N1044   1.422       .  S
C1038      C1039   1.398       .  A
C1038      H1043   1.083       .  S
C1039      C1040   1.425       .  A
C1040      N1041   1.440       .  S
N1041      O1045   1.263       .  A
N1041      O1046   1.263       .  A
N1044      O1047   1.262       .  A
N1044      O1048   1.262       .  A
C1049      C1050   1.408       .  A
C1049      C1054   1.412       .  A
C1049      H1056   1.083       .  S
C1050      C1051   1.415       .  A
C1051      C1052   1.408       .  A
C1051      N1058   1.438       .  S
C1052      C1053   1.411       .  A
C1052      H1057   1.084       .  S
C1053      C1054   1.421       .  A
C1054      N1055   1.439       .  S
N1055      O1059   1.263       .  A
N1055      O1060   1.259       .  A
N1058      O1061   1.263       .  A
N1058      O1062   1.262       .  A
C1063      C1064   1.404       .  A
C1063      C1068   1.414       .  A
C1063      H1070   1.083       .  S
C1064      C1065   1.413       .  A
C1065      C1066   1.393       .  A
C1065      N1072   1.439       .  S
C1066      C1067   1.398       .  A
C1066      H1071   1.085       .  S
C1067      C1068   1.420       .  A
C1068      N1069   1.443       .  S
N1069      O1073   1.263       .  A
N1069      O1074   1.262       .  A
N1072      O1075   1.263       .  A
N1072      O1076   1.262       .  A
C1077      C1078   1.403       .  A
C1077      C1082   1.408       .  A
C1077      H1084   1.084       .  S
C1078      C1079   1.414       .  A
C1079      C1080   1.399       .  A
C1079      N1086   1.440       .  S
C1080      C1081   1.401       .  A
C1080      H1085   1.084       .  S
C1081      C1082   1.416       .  A
C1082      N1083   1.443       .  S
N1083      O1087   1.263       .  A
N1083      O1088   1.263       .  A
N1086      O1089   1.262       .  A
N1086      O1090   1.263       .  A
C1091      C1092   1.403       .  A
C1091      C1096   1.414       .  A
C1091      H1098   1.083       .  S
C1092      C1093   1.413       .  A
C1093      C1094   1.392       .  A
C1093      N1100   1.438       .  S
C1094      C1095   1.396       .  A
C1094      H1099   1.085       .  S
C1095      C1096   1.420       .  A
C1096      N1097   1.442       .  S
N1097      O1101   1.263       .  A
N1097      O1102   1.262       .  A
N1100      O1103   1.262       .  A
N1100      O1104   1.263       .  A
C1105      C1106   1.411       .  A
C1105      C1110   1.390       .  A
C1105      H1112   1.084       .  S
C1106      C1107   1.411       .  A
C1107      C1108   1.413       .  A
C1107      N1114   1.434       .  S
C1108      C1109   1.423       .  A
C1108      H1113   1.081       .  S
C1109      C1110   1.416       .  A
C1110      N1111   1.433       .  S
N1111      O1115   1.262       .  A
N1111      O1116   1.263       .  A
N1114      O1117   1.262       .  A
N1114      O1118   1.262       .  A
C1119      C1120   1.403       .  A
C1119      C1124   1.413       .  A
C1119      H1126   1.083       .  S
C1120      C1121   1.420       .  A
C1121      C1122   1.395       .  A
C1121      N1128   1.444       .  S
C1122      C1123   1.397       .  A
C1122      H1127   1.084       .  S
C1123      C1124   1.420       .  A
C1124      N1125   1.441       .  S
N1125      O1129   1.263       .  A
N1125      O1130   1.262       .  A
N1128      O1131   1.262       .  A
N1128      O1132   1.263       .  A
C1133      C1134   1.404       .  A
C1133      C1138   1.405       .  A
C1133      H1140   1.084       .  S
C1134      C1135   1.414       .  A
C1135      C1136   1.407       .  A
C1135      N1142   1.441       .  S
C1136      C1137   1.409       .  A
C1136      H1141   1.082       .  S
C1137      C1138   1.418       .  A
C1138      N1139   1.438       .  S
N1139      O1143   1.263       .  A
N1139      O1144   1.263       .  A
N1142      O1145   1.262       .  A
N1142      O1146   1.262       .  A
C1147      C1148   1.409       .  A
C1147      C1152   1.409       .  A
C1147      H1154   1.083       .  S
C1148      C1149   1.420       .  A
C1149      C1150   1.395       .  A
C1149      N1156   1.433       .  S
C1150      C1151   1.395       .  A
C1150      H1155   1.085       .  S
C1151      C1152   1.413       .  A
C1152      N1153   1.441       .  S
N1153      O1157   1.262       .  A
N1153      O1158   1.262       .  A
N1156      O1159   1.262       .  A
N1156      O1160   1.262       .  A
C1161      C1162   1.396       .  A
C1161      C1166   1.396       .  A
C1161      H1168   1.084       .  S
C1162      C1163   1.414       .  A
C1163      C1164   1.403       .  A
C1163      N1170   1.438       .  S
C1164      C1165   1.404       .  A
C1164      H1169   1.083       .  S
C1165      C1166   1.420       .  A
C1166      N1167   1.430       .  S
N1167      O1171   1.262       .  A
N1167      O1172   1.262       .  A
N1170      O1173   1.263       .  A
N1170      O1174   1.263       .  A
C1175      C1176   1.403       .  A
C1175      C1180   1.403       .  A
C1175      H1182   1.084       .  S
C1176      C1177   1.413       .  A
C1177      C1178   1.398       .  A
C1177      N1184   1.432       .  S
C1178      C1179   1.402       .  A
C1178      H1183   1.084       .  S
C1179      C1180   1.419       .  A
C1180      N1181   1.438       .  S
N1181      O1185   1.263       .  A
N1181      O1186   1.263       .  A
N1184      O1187   1.261       .  A
N1184      O1188   1.263       .  A
