geometry optimzed in LAMMPS
_audit_creation_date              2020-11-30 
_audit_creation_method            'lammps2cif' 
_symmetry_space_group_name_H-M    'P1' 
_symmetry_Int_Tables_number       1 
_symmetry_cell_setting            triclinic 
loop_ 
_symmetry_equiv_pos_as_xyz 
  x,y,z 
_cell_length_a                    29.428369412350293 
_cell_length_b                    29.31093424952341 
_cell_length_c                    36.364453444588435 
_cell_angle_alpha                 89.21950936155143 
_cell_angle_beta                  91.5226764333682 
_cell_angle_gamma                 90.56959465478967 
loop_ 
_atom_site_label 
_atom_site_type_symbol 
_atom_site_fract_x 
_atom_site_fract_y 
_atom_site_fract_z 
_atom_site_charge 
C1          C  0.25066373  0.25552174  0.99537949    -0.02520
N2          N  0.05217511  0.42785760  0.19316252    -0.27320
N3          N  0.07723672  0.41755964  0.16495971    -0.35180
C4          C  0.06187453  0.44263623  0.13576135     0.01020
C5          C  0.02604763  0.47032836  0.14641687     0.07040
C6          C  0.01954711  0.45675002  0.18246250    -0.06060
H7          H  0.07556375  0.44100250  0.10872897     0.07710
H8          H  0.99222587  0.46534690  0.20017698     0.08910
Cu9        Cu  0.12726479  0.36590676  0.16954098     0.44170
Cu10       Cu  0.06560282  0.41228839  0.24738036     0.41990
Cu11       Cu  0.11603163  0.32047547  0.26384999     0.43880
N12         N  0.15696191  0.30558977  0.19194068    -0.34710
N13         N  0.13701637  0.28455664  0.21951958    -0.28960
C14         C  0.16462569  0.25312111  0.23380298    -0.05060
C15         C  0.20770832  0.25826024  0.21955046     0.07150
C16         C  0.19981279  0.28924968  0.19022741     0.00950
H17         H  0.15684166  0.23841120  0.26003373     0.08600
H18         H  0.22575739  0.30499205  0.17360511     0.07680
N19         N  0.13145024  0.37303879  0.29926142    -0.36160
N20         N  0.10873650  0.41055080  0.29232650    -0.28340
C21         C  0.13272180  0.44617197  0.30507356    -0.03580
C22         C  0.17270285  0.43093401  0.32142646     0.05030
C23         C  0.17095967  0.38383652  0.31704417     0.03120
H24         H  0.12693284  0.48073203  0.29588132     0.08230
H25         H  0.19951745  0.36101783  0.31996363     0.07060
N26         N  0.44633544  0.07632415  0.19517550    -0.27320
N27         N  0.42310118  0.09217300  0.16632163    -0.35180
C28         C  0.43958315  0.07170221  0.13624433     0.01020
C29         C  0.47426237  0.04136403  0.14710734     0.07040
C30         C  0.47875357  0.04838965  0.18452923    -0.06060
H31         H  0.42726657  0.07793507  0.10851524     0.07710
H32         H  0.50460853  0.03598464  0.20353531     0.08910
Cu33       Cu  0.37361735  0.14387990  0.17325344     0.44170
Cu34       Cu  0.42966476  0.08143444  0.24915565     0.41990
Cu35       Cu  0.38052134  0.17112945  0.27280206     0.43880
N36         N  0.34428853  0.20072930  0.19961435    -0.34710
N37         N  0.36261273  0.21564407  0.23077597    -0.28960
C38         C  0.33654003  0.24780942  0.24433270    -0.05060
C39         C  0.29562407  0.24999876  0.22453286     0.07150
C40         C  0.30338527  0.22126129  0.19466776     0.00950
H41         H  0.34121545  0.25705561  0.27267456     0.08600
H42         H  0.27781900  0.20989467  0.17481447     0.07680
N43         N  0.36689683  0.11286241  0.30326429    -0.36160
N44         N  0.38849104  0.07628884  0.29338866    -0.28340
C45         C  0.36588567  0.03913737  0.30490801    -0.03580
C46         C  0.32823580  0.05238258  0.32350921     0.05030
C47         C  0.32945193  0.09987086  0.32149277     0.03120
H48         H  0.36931141  0.00607998  0.29289457     0.08230
H49         H  0.30134376  0.12224166  0.32660833     0.07060
N50         N  0.21380977  0.14338390  0.01904440    -0.27320
N51         N  0.19631950  0.16401107  0.04737772    -0.35180
C52         C  0.21586701  0.20605977  0.04963934     0.01020
C53         C  0.24549485  0.21245471  0.02021597     0.07040
C54         C  0.24567785  0.16977203  0.00438980    -0.06060
H55         H  0.20254226  0.23302573  0.06616630     0.07710
H56         H  0.25679051  0.16283325  0.97711497     0.08910
Cu57       Cu  0.13687948  0.13646352  0.07198422     0.44170
Cu58       Cu  0.17433922  0.11705742  0.97698628     0.41990
Cu59       Cu  0.08768129  0.06454299  0.00036777     0.43880
N60         N  0.08703812  0.08446582  0.08059364    -0.34710
N61         N  0.08011051  0.05325104  0.05525296    -0.28960
C62         C  0.05228976  0.02073590  0.06762066    -0.05060
C63         C  0.03562315  0.03336596  0.10107036     0.07150
C64         C  0.06028697  0.07329561  0.10920524     0.00950
H65         H  0.04377210  0.99063279  0.05201221     0.08600
H66         H  0.05857855  0.09261221  0.13394551     0.07680
N67         N  0.08042478  0.10842855  0.95660638    -0.36160
N68         N  0.11690134  0.12967405  0.94519091    -0.28340
C69         C  0.10433587  0.16792999  0.92669447    -0.03580
C70         C  0.05714718  0.17028260  0.92631956     0.05030
C71         C  0.04373419  0.13286838  0.94685029     0.03120
H72         H  0.12733447  0.19576124  0.92026108     0.08230
H73         H  0.01151608  0.12951966  0.96008100     0.07060
N74         N  0.43055190  0.45184226  0.04973813    -0.27340
N75         N  0.41388090  0.42957771  0.07826293    -0.35180
C76         C  0.43407708  0.44699499  0.10901257     0.01020
C77         C  0.46484377  0.48158003  0.09907109     0.07040
C78         C  0.45880983  0.48480721  0.06124576    -0.06060
H79         H  0.42756808  0.43509503  0.13659484     0.07710
H80         H  0.47304232  0.50960492  0.04252119     0.08910
Cu81       Cu  0.36096961  0.38030979  0.07121240     0.44170
Cu82       Cu  0.42228402  0.43588284  0.99521452     0.41990
Cu83       Cu  0.32832963  0.38915776  0.97329651     0.43880
N84         N  0.30250480  0.35079846  0.04511255    -0.34710
N85         N  0.28598176  0.36974387  0.01458192    -0.28960
C86         C  0.25464568  0.34239729  0.99953740    -0.05060
C87         C  0.25459953  0.30035060  0.01758224     0.07150
C88         C  0.28345990  0.30866211  0.04831932     0.00950
H89         H  0.24432906  0.34848791  0.97146238     0.08600
H90         H  0.29586271  0.28304756  0.06769504     0.07680
N91         N  0.38366916  0.37059402  0.94356196    -0.36160
N92         N  0.42167286  0.39240740  0.95168808    -0.28340
C93         C  0.45683400  0.36721467  0.94179309    -0.03580
C94         C  0.44069217  0.32676812  0.92746736     0.05030
C95         C  0.39367009  0.33005039  0.92864556     0.03120
H96         H  0.49097024  0.37234089  0.95220726     0.08230
H97         H  0.36961891  0.30214896  0.92548653     0.07060
C98         C  0.00007732  0.00701828  0.12362822    -0.02520
C99         C  0.02987439  0.21205264  0.92382805    -0.06160
C100        C  0.02675655  0.23723860  0.95600680    -0.17290
C101        C  0.49537553  0.27216536  0.95867445     0.11040
C102        C  0.46791638  0.28459454  0.92759964    -0.06080
C103        C  0.47053895  0.25874181  0.14553385    -0.17320
C104        C  0.00087744  0.22218041  0.14349821     0.11070
S105        S  0.49022127  0.29724497  0.00343785    -0.32280
S106        S  0.00071443  0.18976984  0.10169914    -0.32290
H107        H  0.04640459  0.17642911  0.10488730     0.29080
H108        H  0.44304097  0.30412126  0.00001234     0.29080
H109        H  0.04732233  0.22783058  0.98007427     0.19670
H110        H  0.44956554  0.26787309  0.12165961     0.19670
C111        C  0.21395790  0.46018174  0.32375218    -0.06160
C112        C  0.22267325  0.48819073  0.29306018    -0.17290
C113        C  0.25876556  0.01906960  0.29304317     0.11040
C114        C  0.28719170  0.02322963  0.32459918    -0.06080
C115        C  0.27978032  0.99439487  0.35513991    -0.17320
C116        C  0.24321549  0.46298982  0.35516993     0.11070
S117        S  0.26805069  0.05093747  0.25118096    -0.32280
S118        S  0.23603279  0.42797220  0.14582761    -0.32290
H119        H  0.18889939  0.42127617  0.14140666     0.29080
H120        H  0.31010200  0.03053348  0.24494042     0.29080
H121        H  0.20144126  0.48555102  0.26834700     0.19670
H122        H  0.30271011  0.99629599  0.12890926     0.19670
C123        C  0.25074307  0.25553159  0.24537597    -0.02520
N124        N  0.05212601  0.42779923  0.44319339    -0.27320
N125        N  0.07724984  0.41756714  0.41501136    -0.35180
C126        C  0.06194282  0.44269433  0.38582489     0.01020
C127        C  0.02607718  0.47034929  0.39646722     0.07040
C128        C  0.01950839  0.45670135  0.43248733    -0.06060
H129        H  0.07571131  0.44112343  0.35881444     0.07710
H130        H  0.99216044  0.46527873  0.45018167     0.08910
Cu131      Cu  0.12729650  0.36593688  0.41958690     0.44170
Cu132      Cu  0.06551583  0.41218398  0.49740724     0.41990
Cu133      Cu  0.11599531  0.32038208  0.51383928     0.43880
N134        N  0.15700234  0.30560543  0.44194375    -0.34710
N135        N  0.13705214  0.28452782  0.46949939    -0.28960
C136        C  0.16468235  0.25310936  0.48378021    -0.05060
C137        C  0.20777245  0.25830313  0.46955135     0.07150
C138        C  0.19986875  0.28930438  0.44023905     0.00950
H139        H  0.15688895  0.23836569  0.50999688     0.08600
H140        H  0.22581025  0.30508050  0.42363330     0.07680
N141        N  0.13141919  0.37294238  0.54925192    -0.36160
N142        N  0.10870286  0.41045378  0.54232006    -0.28340
C143        C  0.13270261  0.44607753  0.55504456    -0.03580
C144        C  0.17268736  0.43084150  0.57139121     0.05030
C145        C  0.17093816  0.38374261  0.56702025     0.03120
H146        H  0.12690963  0.48063543  0.54584884     0.08230
H147        H  0.19949359  0.36092143  0.56993997     0.07060
N148        N  0.44633168  0.07630890  0.44526058    -0.27320
N149        N  0.42314348  0.09220661  0.41639922    -0.35180
C150        C  0.43965198  0.07176591  0.38631989     0.01020
C151        C  0.47429961  0.04139671  0.39718881     0.07040
C152        C  0.47874409  0.04836355  0.43462022    -0.06060
H153        H  0.42737229  0.07803899  0.35858471     0.07710
H154        H  0.50456373  0.03591091  0.45363786     0.08910
Cu155      Cu  0.37367604  0.14392880  0.42330608     0.44170
Cu156      Cu  0.42964699  0.08141433  0.49923740     0.41990
Cu157      Cu  0.38047198  0.17111346  0.52285015     0.43880
N158        N  0.34435083  0.20078202  0.44965355    -0.34710
N159        N  0.36265799  0.21567378  0.48082790    -0.28960
C160        C  0.33659352  0.24785149  0.49437590    -0.05060
C161        C  0.29568881  0.25006026  0.47456038     0.07150
C162        C  0.30345897  0.22133095  0.44469253     0.00950
H163        H  0.34125378  0.25708479  0.52272150     0.08600
H164        H  0.27790082  0.20997797  0.42482723     0.07680
N165        N  0.36683387  0.11284207  0.55330676    -0.36160
N166        N  0.38845823  0.07627398  0.54345937    -0.28340
C167        C  0.36586839  0.03911593  0.55498555    -0.03580
C168        C  0.32818661  0.05235203  0.57354933     0.05030
C169        C  0.32937748  0.09984013  0.57151521     0.03120
H170        H  0.36932731  0.00605144  0.54299251     0.08230
H171        H  0.30125147  0.12219882  0.57660479     0.07060
N172        N  0.21387155  0.14342104  0.26910840    -0.27320
N173        N  0.19635541  0.16407950  0.29741584    -0.35180
C174        C  0.21590316  0.20613125  0.29965824     0.01020
C175        C  0.24555411  0.21249373  0.27024490     0.07040
C176        C  0.24574982  0.16979291  0.25445069    -0.06060
H177        H  0.20256216  0.23311749  0.31615530     0.07710
H178        H  0.25688719  0.16282215  0.22718835     0.08910
Cu179      Cu  0.13688913  0.13654632  0.32200290     0.44170
Cu180      Cu  0.17443710  0.11701196  0.22706482     0.41990
Cu181      Cu  0.08800298  0.06423312  0.25050637     0.43880
N182        N  0.08709060  0.08450978  0.33065437    -0.34710
N183        N  0.08031577  0.05316095  0.30539894    -0.28960
C184        C  0.05249248  0.02066388  0.31779094    -0.05060
C185        C  0.03568581  0.03341561  0.35115576     0.07150
C186        C  0.06023584  0.07343559  0.35922475     0.00950
H187        H  0.04402166  0.99050338  0.30223847     0.08600
H188        H  0.05838354  0.09287451  0.38389140     0.07680
N189        N  0.08054935  0.10807555  0.20674066    -0.36160
N190        N  0.11694502  0.12943258  0.19529023    -0.28340
C191        C  0.10424111  0.16766872  0.17683088    -0.03580
C192        C  0.05704794  0.16989935  0.17652866     0.05030
C193        C  0.04377613  0.13242922  0.19705625     0.03120
H194        H  0.12715118  0.19557191  0.17039120     0.08230
H195        H  0.01160780  0.12899320  0.21035163     0.07060
N196        N  0.43069575  0.45185352  0.29977402    -0.27340
N197        N  0.41392688  0.42966533  0.32829711    -0.35180
C198        C  0.43406233  0.44712421  0.35905517     0.01020
C199        C  0.46489296  0.48165427  0.34912002     0.07040
C200        C  0.45896774  0.48480736  0.31128185    -0.06060
H201        H  0.42747675  0.43528240  0.38663991     0.07710
H202        H  0.47330792  0.50952660  0.29254635     0.08910
Cu203      Cu  0.36100058  0.38041501  0.32121191     0.44170
Cu204      Cu  0.42252562  0.43577176  0.24527557     0.41990
Cu205      Cu  0.32845256  0.38924870  0.22326703     0.43880
N206        N  0.30257904  0.35086205  0.29507124    -0.34710
N207        N  0.28607845  0.36978349  0.26452280    -0.28960
C208        C  0.25476451  0.34241687  0.24947049    -0.05060
C209        C  0.25469365  0.30038769  0.26754333     0.07150
C210        C  0.28353739  0.30872421  0.29828677     0.00950
H211        H  0.24447535  0.34848321  0.22138658     0.08600
H212        H  0.29592163  0.28312751  0.31768572     0.07680
N213        N  0.38382259  0.37050428  0.19363689    -0.36160
N214        N  0.42188151  0.39218769  0.20182745    -0.28340
C215        C  0.45698706  0.36685850  0.19202130    -0.03580
C216        C  0.44074029  0.32646903  0.17766273     0.05030
C217        C  0.39372588  0.32991910  0.17874761     0.03120
H218        H  0.49111998  0.37188043  0.20249449     0.08230
H219        H  0.36958491  0.30210388  0.17553876     0.07060
C220        C  0.00012869  0.00706684  0.37369489    -0.02520
C221        C  0.02968207  0.21161246  0.17409382    -0.06160
C222        C  0.02642032  0.23668349  0.20632096    -0.17290
C223        C  0.49510319  0.27163671  0.20896074     0.11040
C224        C  0.46782059  0.28420422  0.17782421    -0.06080
C225        C  0.47058274  0.25886574  0.39543658    -0.17320
C226        C  0.00096098  0.22230592  0.39346176     0.11070
S227        S  0.48979186  0.29663586  0.25373828    -0.32280
S228        S  0.00113260  0.19008484  0.35157496    -0.32290
H229        H  0.04680918  0.17674502  0.35494912     0.29080
H230        H  0.44265083  0.30368683  0.25016058     0.29080
H231        H  0.04688369  0.22719598  0.23042460     0.19670
H232        H  0.44982355  0.26811995  0.37147188     0.19670
C233        C  0.21393995  0.46009274  0.57372797    -0.06160
C234        C  0.22264343  0.48813593  0.54305352    -0.17290
C235        C  0.25873012  0.01903757  0.54305633     0.11040
C236        C  0.28715647  0.02317646  0.57461501    -0.06080
C237        C  0.27975928  0.99430422  0.60513545    -0.17320
C238        C  0.24320280  0.46287599  0.60514401     0.11070
S239        S  0.26799619  0.05094860  0.50121119    -0.32280
S240        S  0.23597631  0.42787637  0.39578302    -0.32290
H241        H  0.18883489  0.42124643  0.39135325     0.29080
H242        H  0.31014040  0.03071089  0.49502025     0.29080
H243        H  0.20140895  0.48551491  0.51834035     0.19670
H244        H  0.30268804  0.99619925  0.37892681     0.19670
C245        C  0.25079766  0.25558660  0.49538987    -0.02520
N246        N  0.05214057  0.42778847  0.69319693    -0.27320
N247        N  0.07729536  0.41758823  0.66502505    -0.35180
C248        C  0.06201295  0.44273615  0.63584332     0.01020
C249        C  0.02612837  0.47037115  0.64647452     0.07040
C250        C  0.01952434  0.45669019  0.68248321    -0.06060
H251        H  0.07581119  0.44119093  0.60884303     0.07710
H252        H  0.99215565  0.46524909  0.70016279     0.08910
Cu253      Cu  0.12734850  0.36596627  0.66958366     0.44170
Cu254      Cu  0.06549039  0.41212698  0.74741324     0.41990
Cu255      Cu  0.11598560  0.32030240  0.76376883     0.43880
N256        N  0.15707074  0.30562102  0.69189215    -0.34710
N257        N  0.13712041  0.28450362  0.71942826    -0.28960
C258        C  0.16477046  0.25310079  0.73370551    -0.05060
C259        C  0.20786523  0.25834191  0.71949415     0.07150
C260        C  0.19995044  0.28935396  0.69019155     0.00950
H261        H  0.15697022  0.23832604  0.75990947     0.08600
H262        H  0.22588652  0.30515835  0.67359692     0.07680
N263        N  0.13139474  0.37281900  0.79922669    -0.36160
N264        N  0.10866336  0.41033212  0.79233824    -0.28340
C265        C  0.13265848  0.44594278  0.80509312    -0.03580
C266        C  0.17266193  0.43069866  0.82140280     0.05030
C267        C  0.17092199  0.38360691  0.81698771     0.03120
H268        H  0.12686032  0.48050885  0.79592404     0.08230
H269        H  0.19948768  0.36079336  0.81986653     0.07060
N270        N  0.44635970  0.07632035  0.69523968    -0.27320
N271        N  0.42321490  0.09224914  0.66636722    -0.35180
C272        C  0.43975095  0.07182043  0.63629340     0.01020
C273        C  0.47436712  0.04142370  0.64717832     0.07040
C274        C  0.47876805  0.04836108  0.68461543    -0.06060
H275        H  0.42751091  0.07811958  0.60855108     0.07710
H276        H  0.50455489  0.03588072  0.70365001     0.08910
Cu277      Cu  0.37375704  0.14398182  0.67325925     0.44170
Cu278      Cu  0.42961159  0.08139336  0.74920107     0.41990
Cu279      Cu  0.38041170  0.17106800  0.77283184     0.43880
N280        N  0.34443475  0.20082460  0.69961978    -0.34710
N281        N  0.36272597  0.21568386  0.73081028    -0.28960
C282        C  0.33667518  0.24787693  0.74435283    -0.05060
C283        C  0.29578225  0.25011307  0.72452251     0.07150
C284        C  0.30355608  0.22139569  0.69464846     0.00950
H285        H  0.34131736  0.25709164  0.77270429     0.08600
H286        H  0.27800422  0.21006402  0.67476979     0.07680
N287        N  0.36673810  0.11276644  0.80324318    -0.36160
N288        N  0.38837324  0.07620925  0.79338624    -0.28340
C289        C  0.36579194  0.03903833  0.80489666    -0.03580
C290        C  0.32810800  0.05225536  0.82346589     0.05030
C291        C  0.32928305  0.09974486  0.82144543     0.03120
H292        H  0.36927008  0.00597690  0.79290127     0.08230
H293        H  0.30115575  0.12209481  0.82655231     0.07060
N294        N  0.21390002  0.14348338  0.51909306    -0.27320
N295        N  0.19639373  0.16413205  0.54740946    -0.35180
C296        C  0.21595289  0.20617780  0.54966461     0.01020
C297        C  0.24560610  0.21254411  0.52025329     0.07040
C298        C  0.24579169  0.16984909  0.50444751    -0.06060
H299        H  0.20261570  0.23316143  0.56616640     0.07710
H300        H  0.25692634  0.16288922  0.47718229     0.08910
Cu301      Cu  0.13693149  0.13659235  0.57199836     0.44170
Cu302      Cu  0.17444394  0.11713395  0.47703409     0.41990
Cu303      Cu  0.08809872  0.06423707  0.50052114     0.43880
N304        N  0.08715304  0.08453834  0.58065728    -0.34710
N305        N  0.08040511  0.05317124  0.55541283    -0.28960
C306        C  0.05257643  0.02067788  0.56780411    -0.05060
C307        C  0.03574771  0.03344423  0.60115702     0.07150
C308        C  0.06028021  0.07347652  0.60921898     0.00950
H309        H  0.04410988  0.99051254  0.55225658     0.08600
H310        H  0.05840038  0.09293442  0.63387324     0.07680
N311        N  0.08054880  0.10811091  0.45678432    -0.36160
N312        N  0.11690567  0.12951065  0.44530426    -0.28340
C313        C  0.10413737  0.16774109  0.42686499    -0.03580
C314        C  0.05694323  0.16992581  0.42661505     0.05030
C315        C  0.04373998  0.13243655  0.44715033     0.03120
H316        H  0.12701062  0.19566541  0.42039992     0.08230
H317        H  0.01159625  0.12895970  0.46047717     0.07060
N318        N  0.43077394  0.45187072  0.54976743    -0.27340
N319        N  0.41399360  0.42969848  0.57829371    -0.35180
C320        C  0.43412513  0.44716505  0.60905014     0.01020
C321        C  0.46496459  0.48168496  0.59911100     0.07040
C322        C  0.45904862  0.48482513  0.56127086    -0.06060
H323        H  0.42752943  0.43533637  0.63663688     0.07710
H324        H  0.47339918  0.50953351  0.54253156     0.08910
Cu325      Cu  0.36104991  0.38046743  0.57121329     0.44170
Cu326      Cu  0.42259880  0.43576367  0.49527499     0.41990
Cu327      Cu  0.32843822  0.38938880  0.47328096     0.43880
N328        N  0.30261703  0.35092395  0.54508363    -0.34710
N329        N  0.28609970  0.36984922  0.51454236    -0.28960
C330        C  0.25478996  0.34247566  0.49949240    -0.05060
C331        C  0.25473327  0.30044244  0.51756041     0.07150
C332        C  0.28358138  0.30878357  0.54830051     0.00950
H333        H  0.24448439  0.34855176  0.47141421     0.08600
H334        H  0.29597150  0.28318905  0.56769883     0.07680
N335        N  0.38376112  0.37060885  0.44360451    -0.36160
N336        N  0.42186207  0.39221479  0.45180206    -0.28340
C337        C  0.45691802  0.36683123  0.44197078    -0.03580
C338        C  0.44059227  0.32649241  0.42757443     0.05030
C339        C  0.39358601  0.33002278  0.42868207     0.03120
H340        H  0.49105760  0.37175516  0.45246898     0.08230
H341        H  0.36939910  0.30224649  0.42547909     0.07060
C342        C  0.00018629  0.00709710  0.62369249    -0.02520
C343        C  0.02952433  0.21160492  0.42417469    -0.06160
C344        C  0.02599792  0.23653101  0.45645227    -0.17290
C345        C  0.49460145  0.27146635  0.45902931     0.11040
C346        C  0.46758686  0.28417544  0.42778210    -0.06080
C347        C  0.47065109  0.25887248  0.64541325    -0.17320
C348        C  0.00103110  0.22231284  0.64346139     0.11070
S349        S  0.48897310  0.29635396  0.50381517    -0.32280
S350        S  0.00131497  0.19016219  0.60154232    -0.32290
H351        H  0.04698813  0.17682688  0.60497526     0.29080
H352        H  0.44187001  0.30351431  0.50000698     0.29080
H353        H  0.04629162  0.22695890  0.48062685     0.19670
H354        H  0.44994331  0.26816014  0.62142813     0.19670
C355        C  0.21391188  0.45995740  0.82371272    -0.06160
C356        C  0.22256898  0.48801436  0.79303641    -0.17290
C357        C  0.25863534  0.01891684  0.79301417     0.11040
C358        C  0.28709514  0.02305770  0.82455289    -0.06080
C359        C  0.27974789  0.99416888  0.85507233    -0.17320
C360        C  0.24321191  0.46274047  0.85510659     0.11070
S361        S  0.26782774  0.05085636  0.75117069    -0.32280
S362        S  0.23597862  0.42772004  0.64573491    -0.32290
H363        H  0.18883131  0.42112405  0.64132041     0.29080
H364        H  0.31002600  0.03073420  0.74497597     0.29080
H365        H  0.20130645  0.48539365  0.76833864     0.19670
H366        H  0.30266787  0.99609191  0.62892273     0.19670
C367        C  0.25088449  0.25563692  0.74534168    -0.02520
N368        N  0.05225341  0.42808750  0.94323455    -0.27320
N369        N  0.07726723  0.41770520  0.91502423    -0.35180
C370        C  0.06191154  0.44275953  0.88581148     0.01020
C371        C  0.02613627  0.47052730  0.89646409     0.07040
C372        C  0.01966463  0.45702236  0.93253102    -0.06060
H373        H  0.07557600  0.44105494  0.85877178     0.07710
H374        H  0.99236406  0.46566308  0.95025197     0.08910
Cu375      Cu  0.12722117  0.36597855  0.91960224     0.44170
Cu376      Cu  0.06560692  0.41246235  0.99745068     0.41990
Cu377      Cu  0.11598066  0.32058487  0.01388719     0.43880
N378        N  0.15689093  0.30563767  0.94198196    -0.34710
N379        N  0.13695362  0.28462778  0.96957533    -0.28960
C380        C  0.16454852  0.25317430  0.98385115    -0.05060
C381        C  0.20761936  0.25827016  0.96956979     0.07150
C382        C  0.19972693  0.28926387  0.94024867     0.00950
H383        H  0.15678594  0.23849159  0.01009698     0.08600
H384        H  0.22567540  0.30499697  0.92362460     0.07680
N385        N  0.13142138  0.37313061  0.04931034    -0.36160
N386        N  0.10871189  0.41065353  0.04240781    -0.28340
C387        C  0.13270124  0.44625695  0.05518318    -0.03580
C388        C  0.17269177  0.43099575  0.07150420     0.05030
C389        C  0.17094009  0.38390448  0.06708740     0.03120
H390        H  0.12690449  0.48083230  0.04603221     0.08230
H391        H  0.19949685  0.36108064  0.06997699     0.07060
N392        N  0.44640266  0.07654084  0.94517084    -0.27320
N393        N  0.42313335  0.09232870  0.91631346    -0.35180
C394        C  0.43963588  0.07186038  0.88624414     0.01020
C395        C  0.47436932  0.04159079  0.89711708     0.07040
C396        C  0.47886984  0.04865952  0.93453202    -0.06060
H397        H  0.42728811  0.07803907  0.85851570     0.07710
H398        H  0.50474944  0.03630334  0.95353769     0.08910
Cu399      Cu  0.37357553  0.14396303  0.92322667     0.44170
Cu400      Cu  0.42966978  0.08158973  0.99913855     0.41990
Cu401      Cu  0.38046222  0.17122777  0.02277763     0.43880
N402        N  0.34422282  0.20079585  0.94958598    -0.34710
N403        N  0.36255344  0.21572486  0.98074016    -0.28960
C404        C  0.33646872  0.24787502  0.99430179    -0.05060
C405        C  0.29553869  0.25003325  0.97451863     0.07150
C406        C  0.30330548  0.22130216  0.94465076     0.00950
H407        H  0.34116039  0.25712568  0.02264006     0.08600
H408        H  0.27773829  0.20992031  0.92480400     0.07680
N409        N  0.36683888  0.11294931  0.05322312    -0.36160
N410        N  0.38844128  0.07638829  0.04333218    -0.28340
C411        C  0.36584426  0.03922431  0.05483533    -0.03580
C412        C  0.32820196  0.05244866  0.07345483     0.05030
C413        C  0.32940159  0.09993769  0.07145322     0.03120
H414        H  0.36927951  0.00617420  0.04281241     0.08230
H415        H  0.30129105  0.12229798  0.07658722     0.07060
N416        N  0.21399009  0.14353158  0.76903715    -0.27320
N417        N  0.19648124  0.16417649  0.79735425    -0.35180
C418        C  0.21603832  0.20622312  0.79961350     0.01020
C419        C  0.24569369  0.21259294  0.77020418     0.07040
C420        C  0.24588317  0.16989890  0.75439559    -0.06060
H421        H  0.20269481  0.23320576  0.81611284     0.07710
H422        H  0.25702089  0.16294280  0.72713028     0.08910
Cu423      Cu  0.13701477  0.13663306  0.82193367     0.44170
Cu424      Cu  0.17453241  0.11717268  0.72698206     0.41990
Cu425      Cu  0.08823852  0.06418515  0.75049601     0.43880
N426        N  0.08723142  0.08458754  0.83060777    -0.34710
N427        N  0.08050103  0.05318562  0.80538919    -0.28960
C428        C  0.05264069  0.02072475  0.81778903    -0.05060
C429        C  0.03578248  0.03354506  0.85111784     0.07150
C430        C  0.06032401  0.07357624  0.85915879     0.00950
H431        H  0.04416801  0.99054629  0.80226004     0.08600
H432        H  0.05842672  0.09306797  0.88379071     0.07680
N433        N  0.08062940  0.10808305  0.70678094    -0.36160
N434        N  0.11696126  0.12951215  0.69528358    -0.28340
C435        C  0.10415121  0.16774170  0.67686206    -0.03580
C436        C  0.05695681  0.16989799  0.67664709     0.05030
C437        C  0.04379734  0.13239273  0.69718283     0.03120
H438        H  0.12700085  0.19568091  0.67038442     0.08230
H439        H  0.01166967  0.12888681  0.71053026     0.07060
N440        N  0.43083348  0.45194664  0.79973012    -0.27340
N441        N  0.41402771  0.42980247  0.82825989    -0.35180
C442        C  0.43413071  0.44730085  0.85901569     0.01020
C443        C  0.46498190  0.48180690  0.84907355     0.07040
C444        C  0.45909612  0.48491403  0.81122897    -0.06060
H445        H  0.42750438  0.43550765  0.88660484     0.07710
H446        H  0.47346767  0.50960258  0.79248346     0.08910
Cu447      Cu  0.36109256  0.38056061  0.82117891     0.44170
Cu448      Cu  0.42269536  0.43578265  0.74524662     0.41990
Cu449      Cu  0.32850343  0.38945530  0.72323653     0.43880
N450        N  0.30267929  0.35099032  0.79503855    -0.34710
N451        N  0.28616166  0.36991109  0.76449573    -0.28960
C452        C  0.25486077  0.34252931  0.74944356    -0.05060
C453        C  0.25481101  0.30049522  0.76751112     0.07150
C454        C  0.28365545  0.30884394  0.79825267     0.00950
H455        H  0.24455556  0.34860646  0.72136613     0.08600
H456        H  0.29604611  0.28325439  0.81765500     0.07680
N457        N  0.38382870  0.37063993  0.69357522    -0.36160
N458        N  0.42194297  0.39221618  0.70178466    -0.28340
C459        C  0.45698430  0.36680686  0.69196120    -0.03580
C460        C  0.44063372  0.32648386  0.67755337     0.05030
C461        C  0.39362961  0.33004881  0.67865057     0.03120
H462        H  0.49112411  0.37170197  0.70247067     0.08230
H463        H  0.36942364  0.30229078  0.67543862     0.07060
C464        C  0.00019912  0.00723479  0.87365625    -0.02520
C465        C  0.02950878  0.21155879  0.67421403    -0.06160
C466        C  0.02589203  0.23643041  0.70651104    -0.17290
C467        C  0.49454626  0.27139796  0.70904404     0.11040
C468        C  0.46759695  0.28414716  0.67777166    -0.06080
C469        C  0.47053097  0.25904811  0.89534400    -0.17320
C470        C  0.00092610  0.22250327  0.89329397     0.11070
S471        S  0.48885033  0.29626002  0.75383211    -0.32280
S472        S  0.00061432  0.18996488  0.85155720    -0.32290
H473        H  0.04632648  0.17667446  0.85465732     0.29080
H474        H  0.44175862  0.30345971  0.74996969     0.29080
H475        H  0.04612610  0.22682452  0.73070918     0.19670
H476        H  0.44943061  0.26807419  0.87151620     0.19670
C477        C  0.21395508  0.46023033  0.07379304    -0.06160
C478        C  0.22265078  0.48820876  0.04307945    -0.17290
C479        C  0.25873513  0.01908221  0.04302823     0.11040
C480        C  0.28717421  0.02327772  0.07457263    -0.06080
C481        C  0.27978857  0.99446670  0.10513237    -0.17320
C482        C  0.24323273  0.46306386  0.10519648     0.11070
S483        S  0.26799101  0.05091698  0.00114561    -0.32280
S484        S  0.23605747  0.42756387  0.89569587    -0.32290
H485        H  0.18891830  0.42089301  0.89130088     0.29080
H486        H  0.31002746  0.03049070  0.99488979     0.29080
H487        H  0.20140154  0.48554639  0.01837724     0.19670
H488        H  0.30268398  0.99595777  0.87884248     0.19670
C489        C  0.25066393  0.75552437  0.99537841    -0.02520
N490        N  0.05217504  0.92785334  0.19316314    -0.27320
N491        N  0.07723867  0.91755777  0.16496093    -0.35180
C492        C  0.06187707  0.94263515  0.13576283     0.01020
C493        C  0.02604836  0.97032508  0.14641798     0.07040
C494        C  0.01954612  0.95674454  0.18246281    -0.06060
H495        H  0.07556803  0.94100364  0.10873096     0.07710
H496        H  0.99222409  0.96534050  0.20017681     0.08910
Cu497      Cu  0.12726856  0.86590666  0.16954239     0.44170
Cu498      Cu  0.06560423  0.91228762  0.24738136     0.41990
Cu499      Cu  0.11603874  0.82047917  0.26385247     0.43880
N500        N  0.15696520  0.80558959  0.19194241    -0.34710
N501        N  0.13701992  0.78455781  0.21952206    -0.28960
C502        C  0.16462863  0.75312161  0.23380525    -0.05060
C503        C  0.20771114  0.75825956  0.21955222     0.07150
C504        C  0.19981557  0.78924828  0.19022867     0.00950
H505        H  0.15684459  0.73841227  0.26003617     0.08600
H506        H  0.22576024  0.80498991  0.17360599     0.07680
N507        N  0.13145506  0.87304455  0.29926256    -0.36160
N508        N  0.10873946  0.91055518  0.29232667    -0.28340
C509        C  0.13272291  0.94617806  0.30507295    -0.03580
C510        C  0.17270449  0.93094248  0.32142664     0.05030
C511        C  0.17096370  0.88384477  0.31704541     0.03120
H512        H  0.12693188  0.98073767  0.29588036     0.08230
H513        H  0.19952253  0.86102750  0.31996580     0.07060
N514        N  0.44633371  0.57632033  0.19517724    -0.27320
N515        N  0.42310088  0.59217070  0.16632317    -0.35180
C516        C  0.43958390  0.57170087  0.13624582     0.01020
C517        C  0.47426236  0.54136183  0.14710898     0.07040
C518        C  0.47875207  0.54838601  0.18453116    -0.06060
H519        H  0.42726874  0.57793516  0.10851652     0.07710
H520        H  0.50460646  0.53598070  0.20353759     0.08910
Cu521      Cu  0.37361814  0.64387879  0.17325499     0.44170
Cu522      Cu  0.42966255  0.58143053  0.24915727     0.41990
Cu523      Cu  0.38051730  0.67112454  0.27280440     0.43880
N524        N  0.34429037  0.70072863  0.19961624    -0.34710
N525        N  0.36261422  0.71564192  0.23077847    -0.28960
C526        C  0.33654270  0.74780853  0.24433488    -0.05060
C527        C  0.29562710  0.74999937  0.22453461     0.07150
C528        C  0.30338793  0.72126216  0.19466928     0.00950
H529        H  0.34121755  0.75705411  0.27267695     0.08600
H530        H  0.27782153  0.70989639  0.17481576     0.07680
N531        N  0.36689304  0.61285638  0.30326555    -0.36160
N532        N  0.38848850  0.57628355  0.29338995    -0.28340
C533        C  0.36588398  0.53913128  0.30490873    -0.03580
C534        C  0.32823333  0.55237515  0.32350952     0.05030
C535        C  0.32944812  0.59986350  0.32149347     0.03120
H536        H  0.36931089  0.50607419  0.29289503     0.08230
H537        H  0.30133927  0.62223343  0.32660903     0.07060
N538        N  0.21381202  0.64338642  0.01904589    -0.27320
N539        N  0.19631969  0.66401471  0.04737781    -0.35180
C540        C  0.21586603  0.70606401  0.04963860     0.01020
C541        C  0.24549489  0.71245823  0.02021584     0.07040
C542        C  0.24567979  0.66977478  0.00439115    -0.06060
H543        H  0.20253975  0.73303050  0.06616419     0.07710
H544        H  0.25679396  0.66283473  0.97711698     0.08910
Cu545      Cu  0.13687862  0.63646773  0.07198296     0.44170
Cu546      Cu  0.17434499  0.61705505  0.97698782     0.41990
Cu547      Cu  0.08768824  0.56453970  0.00036838     0.43880
N548        N  0.08703832  0.58446922  0.08059273    -0.34710
N549        N  0.08011417  0.55325181  0.05525365    -0.28960
C550        C  0.05229350  0.52073683  0.06762169    -0.05060
C551        C  0.03562379  0.53336923  0.10106964     0.07150
C552        C  0.06028494  0.57330082  0.10920335     0.00950
H553        H  0.04377709  0.49063254  0.05201429     0.08600
H554        H  0.05857308  0.59262004  0.13394207     0.07680
N555        N  0.08043159  0.60842436  0.95660646    -0.36160
N556        N  0.11690804  0.62967007  0.94519106    -0.28340
C557        C  0.10434249  0.66792641  0.92669520    -0.03580
C558        C  0.05715386  0.67027925  0.92632084     0.05030
C559        C  0.04374101  0.63286463  0.94685116     0.03120
H560        H  0.12734105  0.69575785  0.92026227     0.08230
H561        H  0.01152322  0.62951594  0.96008240     0.07060
N562        N  0.43055303  0.95184471  0.04973558    -0.27340
N563        N  0.41388051  0.92958113  0.07826028    -0.35180
C564        C  0.43407591  0.94699852  0.10901014     0.01020
C565        C  0.46484376  0.98158255  0.09906903     0.07040
C566        C  0.45881149  0.98480910  0.06124349    -0.06060
H567        H  0.42756552  0.93509933  0.13659236     0.07710
H568        H  0.47304564  0.00960594  0.04251903     0.08910
Cu569      Cu  0.36096851  0.88031417  0.07120990     0.44170
Cu570      Cu  0.42228441  0.93588595  0.99521181     0.41990
Cu571      Cu  0.32832741  0.88916324  0.97329497     0.43880
N572        N  0.30250364  0.85080249  0.04511074    -0.34710
N573        N  0.28598013  0.86974760  0.01458017    -0.28960
C574        C  0.25464472  0.84240030  0.99953561    -0.05060
C575        C  0.25459929  0.80035370  0.01758058     0.07150
C576        C  0.28345953  0.80866582  0.04831761     0.00950
H577        H  0.24432785  0.84849091  0.97146067     0.08600
H578        H  0.29586274  0.78305161  0.06769346     0.07680
N579        N  0.38366584  0.87059881  0.94355940    -0.36160
N580        N  0.42167016  0.89241165  0.95168450    -0.28340
C581        C  0.45683044  0.86721875  0.94178794    -0.03580
C582        C  0.44068749  0.82677235  0.92746272     0.05030
C583        C  0.39366556  0.83005511  0.92864255     0.03120
H584        H  0.49096725  0.87234451  0.95220090     0.08230
H585        H  0.36961395  0.80215390  0.92548439     0.07060
C586        C  0.00007721  0.50702184  0.12362670    -0.02520
C587        C  0.02988127  0.71204947  0.92383016    -0.06160
C588        C  0.02676139  0.73723319  0.95600991    -0.17290
C589        C  0.49537087  0.77216979  0.95866980     0.11040
C590        C  0.46791115  0.78459841  0.92759518    -0.06080
C591        C  0.47052896  0.75874376  0.14553211    -0.17320
C592        C  0.00089434  0.72217750  0.14350550     0.11070
S593        S  0.49021773  0.79725039  0.00343295    -0.32280
S594        S  0.00074152  0.68977477  0.10170275    -0.32290
H595        H  0.04643295  0.67643907  0.10489441     0.29080
H596        H  0.44303737  0.80412657  0.00000808     0.29080
H597        H  0.04732562  0.72782349  0.98007780     0.19670
H598        H  0.44955517  0.76787444  0.12165793     0.19670
C599        C  0.21395835  0.96019187  0.32375290    -0.06160
C600        C  0.22267368  0.98820085  0.29306091    -0.17290
C601        C  0.25876427  0.51906049  0.29304280     0.11040
C602        C  0.28719012  0.52322086  0.32459896    -0.06080
C603        C  0.27977929  0.49438548  0.35513943    -0.17320
C604        C  0.24321609  0.96299975  0.35517057     0.11070
S605        S  0.26804768  0.55093029  0.25118122    -0.32280
S606        S  0.23603112  0.92797372  0.14582643    -0.32290
H607        H  0.18889764  0.92127821  0.14140556     0.29080
H608        H  0.31010151  0.53053120  0.24494123     0.29080
H609        H  0.20144165  0.98556119  0.26834774     0.19670
H610        H  0.30271142  0.49629515  0.12891118     0.19670
C611        C  0.25074607  0.75553224  0.24537767    -0.02520
N612        N  0.05212835  0.92779386  0.44319509    -0.27320
N613        N  0.07725432  0.91756418  0.41501372    -0.35180
C614        C  0.06194779  0.94269217  0.38582746     0.01020
C615        C  0.02608006  0.97034470  0.39646941     0.07040
C616        C  0.01950947  0.95669430  0.43248865    -0.06060
H617        H  0.07571809  0.94112375  0.35881750     0.07710
H618        H  0.99216085  0.96527083  0.45018259     0.08910
Cu619      Cu  0.12730265  0.86593510  0.41959049     0.44170
Cu620      Cu  0.06552141  0.91218469  0.49740949     0.41990
Cu621      Cu  0.11600973  0.82039014  0.51384696     0.43880
N622        N  0.15700607  0.80560294  0.44194916    -0.34710
N623        N  0.13705618  0.78452917  0.46950680    -0.28960
C624        C  0.16468399  0.75310806  0.48378692    -0.05060
C625        C  0.20777357  0.75829705  0.46955608     0.07150
C626        C  0.19987072  0.78929756  0.44024306     0.00950
H627        H  0.15689131  0.73836675  0.51000457     0.08600
H628        H  0.22581288  0.80507135  0.42363659     0.07680
N629        N  0.13143027  0.87295546  0.54925569    -0.36160
N630        N  0.10871110  0.91046439  0.54232093    -0.28340
C631        C  0.13270744  0.94609139  0.55504370    -0.03580
C632        C  0.17269256  0.93085985  0.57139286     0.05030
C633        C  0.17094747  0.88376039  0.56702469     0.03120
H634        H  0.12691110  0.98064829  0.54584671     0.08230
H635        H  0.19950450  0.86094154  0.56994726     0.07060
N636        N  0.44633094  0.57630248  0.44526252    -0.27320
N637        N  0.42314227  0.59219958  0.41640117    -0.35180
C638        C  0.43965126  0.57175913  0.38632189     0.01020
C639        C  0.47429995  0.54139103  0.39719084     0.07040
C640        C  0.47874461  0.54835856  0.43462218    -0.06060
H641        H  0.42737119  0.57803162  0.35858668     0.07710
H642        H  0.50456496  0.53590724  0.45363974     0.08910
Cu643      Cu  0.37367447  0.64392184  0.42330819     0.44170
Cu644      Cu  0.42964444  0.58140571  0.49923907     0.41990
Cu645      Cu  0.38046409  0.67110145  0.52285282     0.43880
N646        N  0.34435059  0.70077586  0.44965610    -0.34710
N647        N  0.36265776  0.71566572  0.48083105    -0.28960
C648        C  0.33659494  0.74784487  0.49437906    -0.05060
C649        C  0.29569021  0.75005531  0.47456366     0.07150
C650        C  0.30345959  0.72132661  0.44469519     0.00950
H651        H  0.34125516  0.75707731  0.52272486     0.08600
H652        H  0.27790096  0.70997465  0.42482991     0.07680
N653        N  0.36682548  0.61282756  0.55330632    -0.36160
N654        N  0.38845222  0.57626104  0.54345867    -0.28340
C655        C  0.36586376  0.53910135  0.55498325    -0.03580
C656        C  0.32818055  0.55233471  0.57354637     0.05030
C657        C  0.32936894  0.59982292  0.57151343     0.03120
H658        H  0.36932483  0.50603754  0.54298952     0.08230
H659        H  0.30124176  0.62217999  0.57660335     0.07060
N660        N  0.21387958  0.64342065  0.26911269    -0.27320
N661        N  0.19636033  0.66407997  0.29741841    -0.35180
C662        C  0.21590599  0.70613267  0.29966019     0.01020
C663        C  0.24555807  0.71249518  0.27024767     0.07040
C664        C  0.24575715  0.66979347  0.25445514    -0.06060
H665        H  0.20256268  0.73311911  0.31615579     0.07710
H666        H  0.25689675  0.66282152  0.22719367     0.08910
Cu667      Cu  0.13689225  0.63654733  0.32200285     0.44170
Cu668      Cu  0.17445011  0.61700623  0.22706854     0.41990
Cu669      Cu  0.08802011  0.56422226  0.25050885     0.43880
N670        N  0.08709338  0.58451126  0.33065403    -0.34710
N671        N  0.08032341  0.55315849  0.30540106    -0.28960
C672        C  0.05249765  0.52066345  0.31779266    -0.05060
C673        C  0.03568556  0.53341977  0.35115428     0.07150
C674        C  0.06023347  0.57344129  0.35922216     0.00950
H675        H  0.04402793  0.49050148  0.30224168     0.08600
H676        H  0.05837614  0.59288411  0.38388644     0.07680
N677        N  0.08056364  0.60806558  0.20674423    -0.36160
N678        N  0.11695807  0.62942465  0.19529365    -0.28340
C679        C  0.10425220  0.66766216  0.17683709    -0.03580
C680        C  0.05705910  0.66989181  0.17653736     0.05030
C681        C  0.04378943  0.63241959  0.19706338     0.03120
H682        H  0.12716117  0.69556653  0.17039816     0.08230
H683        H  0.01162226  0.62898167  0.21036036     0.07060
N684        N  0.43069616  0.95185866  0.29977140    -0.27340
N685        N  0.41392635  0.92967147  0.32829463    -0.35180
C686        C  0.43406093  0.94713102  0.35905272     0.01020
C687        C  0.46489218  0.98166037  0.34911759     0.07040
C688        C  0.45896842  0.98481235  0.31127921    -0.06060
H689        H  0.42747443  0.93529000  0.38663749     0.07710
H690        H  0.47330996  0.00953064  0.29254359     0.08910
Cu691      Cu  0.36100062  0.88042077  0.32121035     0.44170
Cu692      Cu  0.42252528  0.93577655  0.24527294     0.41990
Cu693      Cu  0.32844887  0.88925613  0.22326703     0.43880
N694        N  0.30257957  0.85086570  0.29507116    -0.34710
N695        N  0.28607721  0.86978639  0.26452304    -0.28960
C696        C  0.25476462  0.84241799  0.24947108    -0.05060
C697        C  0.25469602  0.80038897  0.26754421     0.07150
C698        C  0.28354012  0.80872695  0.29828711     0.00950
H699        H  0.24447449  0.84848393  0.22138735     0.08600
H700        H  0.29592581  0.78313107  0.31768616     0.07680
N701        N  0.38381715  0.87051042  0.19363532    -0.36160
N702        N  0.42187708  0.89219294  0.20182434    -0.28340
C703        C  0.45698130  0.86686267  0.19201693    -0.03580
C704        C  0.44073268  0.82647323  0.17765962     0.05030
C705        C  0.39371851  0.82992462  0.17874622     0.03120
H706        H  0.49111488  0.87188370  0.20248886     0.08230
H707        H  0.36957668  0.80210989  0.17553887     0.07060
C708        C  0.00012703  0.50707194  0.37369217    -0.02520
C709        C  0.02969184  0.71160412  0.17410419    -0.06160
C710        C  0.02642253  0.73666940  0.20633365    -0.17290
C711        C  0.49509469  0.77164072  0.20895835     0.11040
C712        C  0.46781174  0.78420756  0.17782184    -0.06080
C713        C  0.47055996  0.75887127  0.39543520    -0.17320
C714        C  0.00099547  0.72229996  0.39346885     0.11070
S715        S  0.48978451  0.79664159  0.25373538    -0.32280
S716        S  0.00119018  0.69009423  0.35157505    -0.32290
H717        H  0.04686784  0.67676069  0.35495976     0.29080
H718        H  0.44264358  0.80369331  0.25015800     0.29080
H719        H  0.04688087  0.72717815  0.23043909     0.19670
H720        H  0.44979432  0.76812169  0.37147316     0.19670
C721        C  0.21394287  0.96011422  0.57373124    -0.06160
C722        C  0.22264657  0.98815784  0.54305712    -0.17290
C723        C  0.25872598  0.51901685  0.54305270     0.11040
C724        C  0.28715216  0.52315659  0.57461141    -0.06080
C725        C  0.27975622  0.49428360  0.60513164    -0.17320
C726        C  0.24320526  0.96289730  0.60514759     0.11070
S727        S  0.26798937  0.55093010  0.50120815    -0.32280
S728        S  0.23597659  0.92788646  0.39578370    -0.32290
H729        H  0.18883488  0.92125810  0.39135433     0.29080
H730        H  0.31013751  0.53069999  0.49501836     0.29080
H731        H  0.20141254  0.98553694  0.51834370     0.19670
H732        H  0.30268684  0.49619013  0.37892641     0.19670
C733        C  0.25079937  0.75558069  0.49539389    -0.02520
N734        N  0.05214036  0.92778888  0.69319392    -0.27320
N735        N  0.07729818  0.91759203  0.66502299    -0.35180
C736        C  0.06201755  0.94274191  0.63584178     0.01020
C737        C  0.02613095  0.97037445  0.64647243     0.07040
C738        C  0.01952377  0.95668994  0.68247981    -0.06060
H739        H  0.07581808  0.94119957  0.60884218     0.07710
H740        H  0.99215350  0.96524723  0.70015839     0.08910
Cu741      Cu  0.12735229  0.86597107  0.66958169     0.44170
Cu742      Cu  0.06548908  0.91212787  0.74741046     0.41990
Cu743      Cu  0.11598703  0.82030602  0.76376617     0.43880
N744        N  0.15707300  0.80562483  0.69188975    -0.34710
N745        N  0.13712210  0.78450741  0.71942558    -0.28960
C746        C  0.16477156  0.75310401  0.73370277    -0.05060
C747        C  0.20786652  0.75834476  0.71949173     0.07150
C748        C  0.19995243  0.78935708  0.69018923     0.00950
H749        H  0.15697089  0.73832903  0.75990656     0.08600
H750        H  0.22588889  0.80516126  0.67359487     0.07680
N751        N  0.13139417  0.87282273  0.79922439    -0.36160
N752        N  0.10866201  0.91033528  0.79233556    -0.28340
C753        C  0.13265616  0.94594660  0.80509049    -0.03580
C754        C  0.17265956  0.93070333  0.82140092     0.05030
C755        C  0.17092079  0.88361156  0.81698592     0.03120
H756        H  0.12685727  0.98051254  0.79592132     0.08230
H757        H  0.19948700  0.86079868  0.81986513     0.07060
N758        N  0.44635706  0.57632163  0.69523606    -0.27320
N759        N  0.42321332  0.59225072  0.66636319    -0.35180
C760        C  0.43975061  0.57182230  0.63628965     0.01020
C761        C  0.47436657  0.54142554  0.64717530     0.07040
C762        C  0.47876580  0.54836251  0.68461249    -0.06060
H763        H  0.42751182  0.57812187  0.60854700     0.07710
H764        H  0.50455238  0.53588307  0.70364762     0.08910
Cu765      Cu  0.37375598  0.64398383  0.67325531     0.44170
Cu766      Cu  0.42960820  0.58139430  0.74919724     0.41990
Cu767      Cu  0.38040863  0.67106668  0.77282995     0.43880
N768        N  0.34443473  0.70082608  0.69961739    -0.34710
N769        N  0.36272585  0.71568392  0.73080840    -0.28960
C770        C  0.33667587  0.74787752  0.74435116    -0.05060
C771        C  0.29578327  0.75011517  0.72452055     0.07150
C772        C  0.30355669  0.72139841  0.69464605     0.00950
H773        H  0.34131777  0.75709139  0.77270285     0.08600
H774        H  0.27800478  0.71006792  0.67476697     0.07680
N775        N  0.36673686  0.61276490  0.80324167    -0.36160
N776        N  0.38837233  0.57620836  0.79338379    -0.28340
C777        C  0.36579219  0.53903679  0.80489429    -0.03580
C778        C  0.32810887  0.55225265  0.82346486     0.05030
C779        C  0.32928285  0.59974222  0.82144483     0.03120
H780        H  0.36927021  0.50597585  0.79289800     0.08230
H781        H  0.30115528  0.62209145  0.82655265     0.07060
N782        N  0.21391041  0.64347403  0.51909884    -0.27320
N783        N  0.19639972  0.66412290  0.54741332    -0.35180
C784        C  0.21595505  0.70617038  0.54966787     0.01020
C785        C  0.24560920  0.71253814  0.52025745     0.07040
C786        C  0.24579968  0.66984245  0.50445308    -0.06060
H787        H  0.20261489  0.73315342  0.56616866     0.07710
H788        H  0.25693695  0.66288171  0.47718879     0.08910
Cu789      Cu  0.13693655  0.63658224  0.57199997     0.44170
Cu790      Cu  0.17446240  0.61711376  0.47703997     0.41990
Cu791      Cu  0.08811922  0.56421432  0.50052682     0.43880
N792        N  0.08715665  0.58453010  0.58065979    -0.34710
N793        N  0.08041164  0.55315939  0.55541786    -0.28960
C794        C  0.05257946  0.52066913  0.56780906    -0.05060
C795        C  0.03574726  0.53344031  0.60115939     0.07150
C796        C  0.06027932  0.57347331  0.60921983     0.00950
H797        H  0.04411209  0.49050280  0.55226296     0.08600
H798        H  0.05839632  0.59293494  0.63387192     0.07680
N799        N  0.08056816  0.60808970  0.45679147    -0.36160
N800        N  0.11692423  0.62949008  0.44531053    -0.28340
C801        C  0.10415493  0.66772290  0.42687492    -0.03580
C802        C  0.05696107  0.66990870  0.42662896     0.05030
C803        C  0.04375923  0.63241774  0.44716273     0.03120
H804        H  0.12702802  0.69564750  0.42041022     0.08230
H805        H  0.01161723  0.62894023  0.46049220     0.07060
N806        N  0.43076840  0.95187372  0.54976931    -0.27340
N807        N  0.41398961  0.92969943  0.57829526    -0.35180
C808        C  0.43412269  0.94716360  0.60905192     0.01020
C809        C  0.46496178  0.98168401  0.59911343     0.07040
C810        C  0.45904442  0.98482673  0.56127348    -0.06060
H811        H  0.42752873  0.93533244  0.63663832     0.07710
H812        H  0.47339558  0.00953571  0.54253492     0.08910
Cu813      Cu  0.36104745  0.88046699  0.57121537     0.44170
Cu814      Cu  0.42258943  0.93577106  0.49527591     0.41990
Cu815      Cu  0.32842682  0.88939586  0.47328631     0.43880
N816        N  0.30261495  0.85092060  0.54508792    -0.34710
N817        N  0.28609376  0.86984621  0.51454812    -0.28960
C818        C  0.25478638  0.84247019  0.49949800    -0.05060
C819        C  0.25473431  0.80043622  0.51756486     0.07150
C820        C  0.28358344  0.80877831  0.54830412     0.00950
H821        H  0.24447857  0.84854709  0.47142039     0.08600
H822        H  0.29597660  0.78318412  0.56770145     0.07680
N823        N  0.38374692  0.87061812  0.44360586    -0.36160
N824        N  0.42184815  0.89222510  0.45180063    -0.28340
C825        C  0.45690343  0.86684242  0.44196654    -0.03580
C826        C  0.44057721  0.82650260  0.42757229     0.05030
C827        C  0.39357111  0.83003196  0.42868320     0.03120
H828        H  0.49104392  0.87176742  0.45246196     0.08230
H829        H  0.36938456  0.80225494  0.42548255     0.07060
C830        C  0.00018478  0.50709473  0.62369444    -0.02520
C831        C  0.02954168  0.71158755  0.42418946    -0.06160
C832        C  0.02599794  0.73650248  0.45647117    -0.17290
C833        C  0.49459525  0.77148123  0.45902288     0.11040
C834        C  0.46757277  0.78418608  0.42777890    -0.06080
C835        C  0.47065510  0.75886998  0.64541617    -0.17320
C836        C  0.00104180  0.72231351  0.64346108     0.11070
S837        S  0.48897687  0.79637296  0.50380829    -0.32280
S838        S  0.00133400  0.69016896  0.60153916    -0.32290
H839        H  0.04700613  0.67683155  0.60497719     0.29080
H840        H  0.44187274  0.80353073  0.50000702     0.29080
H841        H  0.04627937  0.72692260  0.48065041     0.19670
H842        H  0.44995386  0.76816173  0.62142842     0.19670
C843        C  0.21390902  0.95996263  0.82371186    -0.06160
C844        C  0.22256752  0.98801913  0.79303559    -0.17290
C845        C  0.25863590  0.51891306  0.79301454     0.11040
C846        C  0.28709672  0.52305402  0.82455264    -0.06080
C847        C  0.27975129  0.49416438  0.85507192    -0.17320
C848        C  0.24320794  0.96274567  0.85510639     0.11070
S849        S  0.26782552  0.55085418  0.75117139    -0.32280
S850        S  0.23597975  0.92774170  0.64573849    -0.32290
H851        H  0.18883201  0.92114847  0.64132403     0.29080
H852        H  0.31002387  0.53073321  0.74497486     0.29080
H853        H  0.20130575  0.98539842  0.76833740     0.19670
H854        H  0.30266492  0.49607179  0.62891882     0.19670
C855        C  0.25088546  0.75563938  0.74533953    -0.02520
N856        N  0.05225263  0.92808709  0.94323395    -0.27320
N857        N  0.07726756  0.91770667  0.91502380    -0.35180
C858        C  0.06191198  0.94276175  0.88581146     0.01020
C859        C  0.02613550  0.97052784  0.89646424     0.07040
C860        C  0.01966314  0.95702119  0.93253060    -0.06060
H861        H  0.07557725  0.94105872  0.85877194     0.07710
H862        H  0.99236194  0.96566070  0.95025134     0.08910
Cu863      Cu  0.12722233  0.86598081  0.91960112     0.44170
Cu864      Cu  0.06560556  0.91246138  0.99744996     0.41990
Cu865      Cu  0.11598083  0.82058518  0.01388502     0.43880
N866        N  0.15689175  0.80563933  0.94197995    -0.34710
N867        N  0.13695403  0.78462882  0.96957281    -0.28960
C868        C  0.16454883  0.75317520  0.98384854    -0.05060
C869        C  0.20762006  0.75827193  0.96956804     0.07150
C870        C  0.19972788  0.78926578  0.94024697     0.00950
H871        H  0.15678546  0.73849144  0.01009381     0.08600
H872        H  0.22567655  0.80499929  0.92362335     0.07680
N873        N  0.13142073  0.87313037  0.04930894    -0.36160
N874        N  0.10871066  0.91065305  0.04240689    -0.28340
C875        C  0.13269973  0.94625668  0.05518223    -0.03580
C876        C  0.17269060  0.93099578  0.07150289     0.05030
C877        C  0.17093945  0.88390456  0.06708583     0.03120
H878        H  0.12690233  0.98083208  0.04603161     0.08230
H879        H  0.19949653  0.86108109  0.06997502     0.07060
N880        N  0.44640077  0.57653930  0.94517175    -0.27320
N881        N  0.42313130  0.59232707  0.91631440    -0.35180
C882        C  0.43963348  0.57185841  0.88624508     0.01020
C883        C  0.47436708  0.54158892  0.89711799     0.07040
C884        C  0.47886792  0.54865797  0.93453289    -0.06060
H885        H  0.42728546  0.57803692  0.85851662     0.07710
H886        H  0.50474780  0.53630208  0.95353844     0.08910
Cu887      Cu  0.37357447  0.64396247  0.92322770     0.44170
Cu888      Cu  0.42966906  0.58158969  0.99913966     0.41990
Cu889      Cu  0.38046114  0.67122813  0.02277849     0.43880
N890        N  0.34422273  0.70079639  0.94958643    -0.34710
N891        N  0.36255306  0.71572530  0.98074076    -0.28960
C892        C  0.33646883  0.74787633  0.99430180    -0.05060
C893        C  0.29553922  0.75003524  0.97451811     0.07150
C894        C  0.30330598  0.72130367  0.94465051     0.00950
H895        H  0.34116012  0.75712727  0.02264004     0.08600
H896        H  0.27773885  0.70992203  0.92480363     0.07680
N897        N  0.36683899  0.61294991  0.05322475    -0.36160
N898        N  0.38844165  0.57638893  0.04333405    -0.28340
C899        C  0.36584516  0.53922491  0.05483779    -0.03580
C900        C  0.32820283  0.55244914  0.07345733     0.05030
C901        C  0.32940203  0.59993818  0.07145526     0.03120
H902        H  0.36928053  0.50617471  0.04281506     0.08230
H903        H  0.30129125  0.62229824  0.07658907     0.07060
N904        N  0.21399259  0.64353296  0.76903532    -0.27320
N905        N  0.19648236  0.66417789  0.79735183    -0.35180
C906        C  0.21603826  0.70622511  0.79961087     0.01020
C907        C  0.24569415  0.71259532  0.77020193     0.07040
C908        C  0.24588485  0.66990115  0.75439362    -0.06060
H909        H  0.20269390  0.73320758  0.81610994     0.07710
H910        H  0.25702342  0.66294480  0.72712859     0.08910
Cu911      Cu  0.13701625  0.63663299  0.82193111     0.44170
Cu912      Cu  0.17453758  0.61716876  0.72698098     0.41990
Cu913      Cu  0.08824482  0.56417949  0.75049602     0.43880
N914        N  0.08723402  0.58458655  0.83060660    -0.34710
N915        N  0.08050530  0.55318278  0.80538926    -0.28960
C916        C  0.05264492  0.52072226  0.81778970    -0.05060
C917        C  0.03578545  0.53354426  0.85111759     0.07150
C918        C  0.06032552  0.57357672  0.85915729     0.00950
H919        H  0.04417217  0.49054323  0.80226141     0.08600
H920        H  0.05842628  0.59307046  0.88378800     0.07680
N921        N  0.08063445  0.60807789  0.70678138    -0.36160
N922        N  0.11696581  0.62950715  0.69528318    -0.28340
C923        C  0.10415508  0.66773716  0.67686258    -0.03580
C924        C  0.05696079  0.66989372  0.67664933     0.05030
C925        C  0.04380214  0.63238810  0.69718501     0.03120
H926        H  0.12700450  0.69567644  0.67038464     0.08230
H927        H  0.01167512  0.62888193  0.71053342     0.07060
N928        N  0.43083481  0.95194828  0.79972960    -0.27340
N929        N  0.41402898  0.92980440  0.82825944    -0.35180
C930        C  0.43413206  0.94730305  0.85901511     0.01020
C931        C  0.46498349  0.98180881  0.84907277     0.07040
C932        C  0.45909735  0.98491583  0.81122821    -0.06060
H933        H  0.42750557  0.93551035  0.88660429     0.07710
H934        H  0.47346852  0.00960435  0.79248250     0.08910
Cu935      Cu  0.36109371  0.88056268  0.82117792     0.44170
Cu936      Cu  0.42269818  0.93578179  0.74524675     0.41990
Cu937      Cu  0.32850482  0.88945869  0.72323471     0.43880
N938        N  0.30268084  0.85099252  0.79503666    -0.34710
N939        N  0.28616327  0.86991355  0.76449391    -0.28960
C940        C  0.25486238  0.84253187  0.74944160    -0.05060
C941        C  0.25481236  0.80049768  0.76750902     0.07150
C942        C  0.28365688  0.80884616  0.79825057     0.00950
H943        H  0.24455711  0.84860932  0.72136422     0.08600
H944        H  0.29604727  0.78325653  0.81765295     0.07680
N945        N  0.38383053  0.87063955  0.69357538    -0.36160
N946        N  0.42194600  0.89221260  0.70178679    -0.28340
C947        C  0.45698611  0.86679999  0.69196579    -0.03580
C948        C  0.44063323  0.82647871  0.67755650     0.05030
C949        C  0.39362929  0.83004762  0.67865117     0.03120
H950        H  0.49112546  0.87169185  0.70247768     0.08230
H951        H  0.36942130  0.80229159  0.67543789     0.07060
C952        C  0.00020111  0.50723489  0.87365562    -0.02520
C953        C  0.02951271  0.71155454  0.67421667    -0.06160
C954        C  0.02588963  0.73642183  0.70651530    -0.17290
C955        C  0.49453390  0.77138577  0.70905194     0.11040
C956        C  0.46759299  0.78413990  0.67777628    -0.06080
C957        C  0.47052477  0.75905109  0.89533992    -0.17320
C958        C  0.00093519  0.72250246  0.89329527     0.11070
S959        S  0.48882827  0.79624389  0.75384041    -0.32280
S960        S  0.00062639  0.68996732  0.85155691    -0.32290
H961        H  0.04633871  0.67667767  0.85465814     0.29080
H962        H  0.44173804  0.80344847  0.74997053     0.29080
H963        H  0.04611897  0.72681269  0.73071517     0.19670
H964        H  0.44942397  0.76807675  0.87151227     0.19670
C965        C  0.21395372  0.96023059  0.07379146    -0.06160
C966        C  0.22264951  0.98820843  0.04307755    -0.17290
C967        C  0.25873611  0.51908285  0.04303051     0.11040
C968        C  0.28717521  0.52327794  0.07457493    -0.06080
C969        C  0.27978983  0.49446620  0.10513430    -0.17320
C970        C  0.24323133  0.96306457  0.10519489     0.11070
S971        S  0.26799159  0.55091856  0.00114828    -0.32280
S972        S  0.23605131  0.92756983  0.89569578    -0.32290
H973        H  0.18891193  0.92090110  0.89130003     0.29080
H974        H  0.31002845  0.53049321  0.99489228     0.29080
H975        H  0.20140019  0.98554572  0.01837541     0.19670
H976        H  0.30268826  0.49595330  0.87884152     0.19670
C977        C  0.75066540  0.25552350  0.99537643    -0.02520
N978        N  0.55218111  0.42785694  0.19316365    -0.27320
N979        N  0.57724360  0.41755895  0.16496136    -0.35180
C980        C  0.56188141  0.44263481  0.13576254     0.01020
C981        C  0.52605337  0.47032588  0.14641729     0.07040
C982        C  0.51955223  0.45674784  0.18246279    -0.06060
H983        H  0.57557091  0.44100105  0.10873027     0.07710
H984        H  0.49223011  0.46534416  0.20017661     0.08910
Cu985      Cu  0.62727105  0.36590534  0.16954374     0.44170
Cu986      Cu  0.56560561  0.41228741  0.24738184     0.41990
Cu987      Cu  0.61603386  0.32047569  0.26385278     0.43880
N988        N  0.65696580  0.30558755  0.19194454    -0.34710
N989        N  0.63701867  0.28455541  0.21952314    -0.28960
C990        C  0.66462689  0.25311984  0.23380798    -0.05060
C991        C  0.70771050  0.25825879  0.21955738     0.07150
C992        C  0.69981663  0.28924684  0.19023309     0.00950
H993        H  0.65684072  0.23841001  0.26003825     0.08600
H994        H  0.72576255  0.30498908  0.17361202     0.07680
N995        N  0.63144893  0.37303817  0.29926595    -0.36160
N996        N  0.60873451  0.41054969  0.29233080    -0.28340
C997        C  0.63271781  0.44617115  0.30507970    -0.03580
C998        C  0.67269849  0.43093391  0.32143375     0.05030
C999        C  0.67095697  0.38383652  0.31705048     0.03120
H1000       H  0.62692841  0.48073131  0.29588776     0.08230
H1001       H  0.69951539  0.36101870  0.31997036     0.07060
N1002       N  0.94632780  0.07631610  0.19518124    -0.27320
N1003       N  0.92309559  0.09216837  0.16632751    -0.35180
C1004       C  0.93957921  0.07170061  0.13624944     0.01020
C1005       C  0.97425778  0.04136124  0.14711173     0.07040
C1006       C  0.97874688  0.04838310  0.18453432    -0.06060
H1007       H  0.92726433  0.07793656  0.10852024     0.07710
H1008       H  0.00460120  0.03597689  0.20354044     0.08910
Cu1009     Cu  0.87361376  0.14387698  0.17326092     0.44170
Cu1010     Cu  0.92965528  0.08142353  0.24916128     0.41990
Cu1011     Cu  0.88051430  0.17112017  0.27281078     0.43880
N1012       N  0.84428745  0.20072686  0.19962327    -0.34710
N1013       N  0.86261154  0.21563902  0.23078579    -0.28960
C1014       C  0.83654066  0.24780585  0.24434274    -0.05060
C1015       C  0.79562533  0.24999821  0.22454230     0.07150
C1016       C  0.80338547  0.22126134  0.19467660     0.00950
H1017       H  0.84121552  0.25705052  0.27268499     0.08600
H1018       H  0.77781874  0.20989634  0.17482307     0.07680
N1019       N  0.86688884  0.11285181  0.30327133    -0.36160
N1020       N  0.88848228  0.07627815  0.29339481    -0.28340
C1021       C  0.86587752  0.03912672  0.30491500    -0.03580
C1022       C  0.82822846  0.05237199  0.32351721     0.05030
C1023       C  0.82944476  0.09986031  0.32150092     0.03120
H1024       H  0.86930289  0.00606915  0.29290174     0.08230
H1025       H  0.80133707  0.12223126  0.32661760     0.07060
N1026       N  0.71381525  0.14338449  0.01904196    -0.27320
N1027       N  0.69632478  0.16401110  0.04737543    -0.35180
C1028       C  0.71587085  0.20606049  0.04963679     0.01020
C1029       C  0.74549797  0.21245638  0.02021307     0.07040
C1030       C  0.74568219  0.16977364  0.00438701    -0.06060
H1031       H  0.70254542  0.23302600  0.06616385     0.07710
H1032       H  0.75679451  0.16283511  0.97711205     0.08910
Cu1033     Cu  0.63688595  0.13646157  0.07198201     0.44170
Cu1034     Cu  0.67434470  0.11705775  0.97698394     0.41990
Cu1035     Cu  0.58768830  0.06454055  0.00036503     0.43880
N1036       N  0.58704481  0.08446374  0.08059101    -0.34710
N1037       N  0.58011576  0.05324965  0.05524996    -0.28960
C1038       C  0.55229353  0.02073557  0.06761726    -0.05060
C1039       C  0.53562805  0.03336566  0.10106728     0.07150
C1040       C  0.56029382  0.07329386  0.10920272     0.00950
H1041       H  0.54377447  0.99063312  0.05200843     0.08600
H1042       H  0.55858648  0.09260995  0.13394333     0.07680
N1043       N  0.58043000  0.10842796  0.95660524    -0.36160
N1044       N  0.61690589  0.12967463  0.94518975    -0.28340
C1045       C  0.60433929  0.16793134  0.92669487    -0.03580
C1046       C  0.55715061  0.17028328  0.92632124     0.05030
C1047       C  0.54373877  0.13286781  0.94685096     0.03120
H1048       H  0.62733729  0.19576316  0.92026171     0.08230
H1049       H  0.51152101  0.12951758  0.96008205     0.07060
N1050       N  0.93055395  0.45184449  0.04973520    -0.27340
N1051       N  0.91387851  0.42958310  0.07825982    -0.35180
C1052       C  0.93407110  0.44700253  0.10901002     0.01020
C1053       C  0.96484041  0.48158534  0.09906939     0.07040
C1054       C  0.95881200  0.48480918  0.06124335    -0.06060
H1055       H  0.92755784  0.43510554  0.13659223     0.07710
H1056       H  0.97304856  0.50960423  0.04251862     0.08910
Cu1057     Cu  0.86096736  0.38031536  0.07120906     0.44170
Cu1058     Cu  0.92228821  0.43588335  0.99521164     0.41990
Cu1059     Cu  0.82833036  0.38916102  0.97329353     0.43880
N1060       N  0.80250395  0.35080205  0.04510912    -0.34710
N1061       N  0.78598135  0.36974659  0.01457802    -0.28960
C1062       C  0.75464630  0.34239906  0.99953327    -0.05060
C1063       C  0.75460040  0.30035274  0.01757871     0.07150
C1064       C  0.78346003  0.30866527  0.04831604     0.00950
H1065       H  0.74433069  0.34848875  0.97145790     0.08600
H1066       H  0.79586306  0.28305128  0.06769215     0.07680
N1067       N  0.88366965  0.37059623  0.94355898    -0.36160
N1068       N  0.92167401  0.39240885  0.95168445    -0.28340
C1069       C  0.95683429  0.36721581  0.94178815    -0.03580
C1070       C  0.94069135  0.32676948  0.92746282     0.05030
C1071       C  0.89366941  0.33005252  0.92864216     0.03120
H1072       H  0.99097103  0.37234142  0.95220136     0.08230
H1073       H  0.86961766  0.30215151  0.92548358     0.07060
C1074       C  0.50008148  0.00701947  0.12362515    -0.02520
C1075       C  0.52987695  0.21205280  0.92383086    -0.06160
C1076       C  0.52675827  0.23723744  0.95601024    -0.17290
C1077       C  0.99537417  0.27216686  0.95867053     0.11040
C1078       C  0.96791482  0.28459538  0.92759567    -0.06080
C1079       C  0.97050996  0.25875215  0.14552594    -0.17320
C1080       C  0.50090625  0.22217019  0.14350459     0.11070
S1081       S  0.99022060  0.29724771  0.00343354    -0.32280
S1082       S  0.50074037  0.18975963  0.10170556    -0.32290
H1083       H  0.54643248  0.17642448  0.10489018     0.29080
H1084       H  0.94304029  0.30412400  0.00000830     0.29080
H1085       H  0.54732387  0.22782882  0.98007765     0.19670
H1086       H  0.94953893  0.26788406  0.12165050     0.19670
C1087       C  0.71395287  0.46018248  0.32375996    -0.06160
C1088       C  0.72266851  0.48819096  0.29306773    -0.17290
C1089       C  0.75875930  0.01905864  0.29305029     0.11040
C1090       C  0.78718418  0.02321934  0.32460695    -0.06080
C1091       C  0.77977192  0.99438489  0.35514774    -0.17320
C1092       C  0.74320987  0.46299136  0.35517801     0.11070
S1093       S  0.76804430  0.05092795  0.25118875    -0.32280
S1094       S  0.73603610  0.42797230  0.14582430    -0.32290
H1095       H  0.68890262  0.42127613  0.14140412     0.29080
H1096       H  0.81009362  0.03052087  0.24494627     0.29080
H1097       H  0.70143700  0.48555070  0.26835433     0.19670
H1098       H  0.80271206  0.99629597  0.12890892     0.19670
C1099       C  0.75074397  0.25553254  0.24538455    -0.02520
N1100       N  0.55212410  0.42779248  0.44319752    -0.27320
N1101       N  0.57724689  0.41756124  0.41501464    -0.35180
C1102       C  0.56193808  0.44268857  0.38582881     0.01020
C1103       C  0.52607270  0.47034309  0.39647246     0.07040
C1104       C  0.51950549  0.45669413  0.43249264    -0.06060
H1105       H  0.57570549  0.44111852  0.35881797     0.07710
H1106       H  0.49215883  0.46527139  0.45018821     0.08910
Cu1107     Cu  0.62729612  0.36593288  0.41958910     0.44170
Cu1108     Cu  0.56552272  0.41218486  0.49741150     0.41990
Cu1109     Cu  0.61601319  0.32038968  0.51384658     0.43880
N1110       N  0.65700339  0.30560209  0.44194660    -0.34710
N1111       N  0.63705600  0.28452823  0.46950537    -0.28960
C1112       C  0.66468501  0.25310705  0.48378371    -0.05060
C1113       C  0.70777334  0.25829590  0.46955028     0.07150
C1114       C  0.69986797  0.28929705  0.44023806     0.00950
H1115       H  0.65689486  0.23836602  0.51000200     0.08600
H1116       H  0.72580847  0.30507078  0.42362988     0.07680
N1117       N  0.63143671  0.37295584  0.54925385    -0.36160
N1118       N  0.60871701  0.41046475  0.54232024    -0.28340
C1119       C  0.63271434  0.44609179  0.55504183    -0.03580
C1120       C  0.67270072  0.43086030  0.57138887     0.05030
C1121       C  0.67095526  0.38376084  0.56702082     0.03120
H1122       H  0.62691729  0.48064867  0.54584524     0.08230
H1123       H  0.69951236  0.36094195  0.56994214     0.07060
N1124       N  0.94633867  0.07630499  0.44525790    -0.27320
N1125       N  0.92315043  0.09220190  0.41639623    -0.35180
C1126       C  0.93965969  0.07176098  0.38631729     0.01020
C1127       C  0.97430775  0.04139249  0.39718674     0.07040
C1128       C  0.97875186  0.04836009  0.43461811    -0.06060
H1129       H  0.92738006  0.07803316  0.35858197     0.07710
H1130       H  0.00457105  0.03590740  0.45363616     0.08910
Cu1131     Cu  0.87368104  0.14392315  0.42330181     0.44170
Cu1132     Cu  0.92965287  0.08141067  0.49923433     0.41990
Cu1133     Cu  0.88047054  0.17110685  0.52284506     0.43880
N1134       N  0.84435387  0.20077660  0.44964817    -0.34710
N1135       N  0.86266086  0.21566857  0.48082247    -0.28960
C1136       C  0.83659664  0.24784683  0.49436999    -0.05060
C1137       C  0.79569138  0.25005472  0.47455504     0.07150
C1138       C  0.80346176  0.22132525  0.44468720     0.00950
H1139       H  0.84125715  0.25708062  0.52271546     0.08600
H1140       H  0.77790354  0.20997179  0.42482214     0.07680
N1141       N  0.86683199  0.11283373  0.55329956    -0.36160
N1142       N  0.88845954  0.07626711  0.54345319    -0.28340
C1143       C  0.86587022  0.03910753  0.55497690    -0.03580
C1144       C  0.82818594  0.05234106  0.57353848     0.05030
C1145       C  0.82937429  0.09982922  0.57150521     0.03120
H1146       H  0.86933195  0.00604371  0.54298335     0.08230
H1147       H  0.80124669  0.12218628  0.57659384     0.07060
N1148       N  0.71387931  0.14342083  0.26912336    -0.27320
N1149       N  0.69635615  0.16408215  0.29742650    -0.35180
C1150       C  0.71590010  0.20613577  0.29966704     0.01020
C1151       C  0.74555476  0.21249688  0.27025604     0.07040
C1152       C  0.74575692  0.16979385  0.25446598    -0.06060
H1153       H  0.70255418  0.23312321  0.31616019     0.07710
H1154       H  0.75689983  0.16281978  0.22720582     0.08910
Cu1155     Cu  0.63688562  0.13655043  0.32200835     0.44170
Cu1156     Cu  0.67445609  0.11699813  0.22707909     0.41990
Cu1157     Cu  0.58801843  0.06422275  0.25051436     0.43880
N1158       N  0.58708631  0.08451431  0.33065898    -0.34710
N1159       N  0.58031900  0.05316024  0.30540669    -0.28960
C1160       C  0.55249433  0.02066429  0.31779847    -0.05060
C1161       C  0.53567979  0.03342114  0.35115915     0.07150
C1162       C  0.56022506  0.07344453  0.35922639     0.00950
H1163       H  0.54402659  0.99050133  0.30224808     0.08600
H1164       H  0.55836533  0.09288850  0.38388986     0.07680
N1165       N  0.58057175  0.10806130  0.20674544    -0.36160
N1166       N  0.61696958  0.12941664  0.19529744    -0.28340
C1167       C  0.60426927  0.16765374  0.17683779    -0.03580
C1168       C  0.55707624  0.16988717  0.17653304     0.05030
C1169       C  0.54380071  0.13241731  0.19705935     0.03120
H1170       H  0.62718129  0.19555624  0.17040064     0.08230
H1171       H  0.51163148  0.12898356  0.21035372     0.07060
N1172       N  0.93069701  0.45186067  0.29976881    -0.27340
N1173       N  0.91392928  0.42967245  0.32829241    -0.35180
C1174       C  0.93406676  0.44713025  0.35904998     0.01020
C1175       C  0.96489764  0.48165956  0.34911414     0.07040
C1176       C  0.95897069  0.48481346  0.31127609    -0.06060
H1177       H  0.92748190  0.43528854  0.38663488     0.07710
H1178       H  0.97331078  0.50953273  0.29254051     0.08910
Cu1179     Cu  0.86100115  0.38042384  0.32121010     0.44170
Cu1180     Cu  0.92251857  0.43578282  0.24527000     0.41990
Cu1181     Cu  0.82843654  0.38926673  0.22327073     0.43880
N1182       N  0.80257728  0.35086858  0.29507513    -0.34710
N1183       N  0.78607088  0.36978916  0.26452836    -0.28960
C1184       C  0.75475868  0.34241921  0.24947769    -0.05060
C1185       C  0.75469361  0.30038990  0.26755044     0.07150
C1186       C  0.78353974  0.30872909  0.29829193     0.00950
H1187       H  0.74446467  0.34848608  0.22139500     0.08600
H1188       H  0.79592765  0.28313381  0.31769057     0.07680
N1189       N  0.88380035  0.37052041  0.19363397    -0.36160
N1190       N  0.92186214  0.39220143  0.20181978    -0.28340
C1191       C  0.95696391  0.36686996  0.19200886    -0.03580
C1192       C  0.94071180  0.32648106  0.17765297     0.05030
C1193       C  0.89369809  0.32993413  0.17874406     0.03120
H1194       H  0.99109892  0.37188907  0.20247829     0.08230
H1195       H  0.86955501  0.30211996  0.17553983     0.07060
C1196       C  0.50012112  0.00707218  0.37369644    -0.02520
C1197       C  0.52971317  0.21160218  0.17409873    -0.06160
C1198       C  0.52645477  0.23667395  0.20632577    -0.17290
C1199       C  0.99506825  0.27164603  0.20895435     0.11040
C1200       C  0.96778883  0.28421418  0.17781626    -0.06080
C1201       C  0.97057017  0.25886570  0.39543417    -0.17320
C1202       C  0.50097505  0.22230688  0.39346801     0.11070
S1203       S  0.98975387  0.29664640  0.25373114    -0.32280
S1204       S  0.50117328  0.19010202  0.35157383    -0.32290
H1205       H  0.54685015  0.17676654  0.35496104     0.29080
H1206       H  0.94261349  0.30369982  0.25015059     0.29080
H1207       H  0.54691962  0.22718610  0.23042851     0.19670
H1208       H  0.94979541  0.26811038  0.37147583     0.19670
C1209       C  0.71395115  0.46011472  0.57372541    -0.06160
C1210       C  0.72265288  0.48815830  0.54305084    -0.17290
C1211       C  0.75873080  0.01902259  0.54304550     0.11040
C1212       C  0.78715782  0.02316250  0.57460374    -0.06080
C1213       C  0.77976265  0.99428968  0.60512419    -0.17320
C1214       C  0.74321546  0.46289800  0.60514059     0.11070
S1215       S  0.76799397  0.05093436  0.50120018    -0.32280
S1216       S  0.73596994  0.42787883  0.39579150    -0.32290
H1217       H  0.68882864  0.42124864  0.39136101     0.29080
H1218       H  0.81014506  0.03070904  0.49501297     0.29080
H1219       H  0.70141735  0.48553719  0.51833826     0.19670
H1220       H  0.80267867  0.99618986  0.37893519     0.19670
C1221       C  0.75080089  0.25557870  0.49538620    -0.02520
N1222       N  0.55214670  0.42779306  0.69319340    -0.27320
N1223       N  0.57730416  0.41759494  0.66502257    -0.35180
C1224       C  0.56202320  0.44274370  0.63584080     0.01020
C1225       C  0.52613651  0.47037658  0.64647095     0.07040
C1226       C  0.51952992  0.45669362  0.68247873    -0.06060
H1227       H  0.57582341  0.44120016  0.60884109     0.07710
H1228       H  0.49215919  0.46525054  0.70015696     0.08910
Cu1229     Cu  0.62735696  0.36597274  0.66958215     0.44170
Cu1230     Cu  0.56549260  0.41213028  0.74741002     0.41990
Cu1231     Cu  0.61598607  0.32030653  0.76376619     0.43880
N1232       N  0.65707542  0.30562568  0.69189094    -0.34710
N1233       N  0.63712287  0.28450834  0.71942602    -0.28960
C1234       C  0.66477147  0.25310493  0.73370436    -0.05060
C1235       C  0.70786727  0.25834574  0.71949505     0.07150
C1236       C  0.69995492  0.28935771  0.69019205     0.00950
H1237       H  0.65696926  0.23832995  0.75990783     0.08600
H1238       H  0.72589259  0.30516215  0.67359904     0.07680
N1239       N  0.63139229  0.37282133  0.79922644    -0.36160
N1240       N  0.60866120  0.41033453  0.79233770    -0.28340
C1241       C  0.63265521  0.44594488  0.80509448    -0.03580
C1242       C  0.67265765  0.43070043  0.82140571     0.05030
C1243       C  0.67091826  0.38360884  0.81698951     0.03120
H1244       H  0.62685785  0.48051111  0.79592543     0.08230
H1245       H  0.69948404  0.36079546  0.81986884     0.07060
N1246       N  0.94635325  0.07631846  0.69524005    -0.27320
N1247       N  0.92320869  0.09224799  0.66636775    -0.35180
C1248       C  0.93974482  0.07181989  0.63629361     0.01020
C1249       C  0.97436126  0.04142319  0.64717828     0.07040
C1250       C  0.97876189  0.04835981  0.68461549    -0.06060
H1251       H  0.92750494  0.07811979  0.60855124     0.07710
H1252       H  0.00454914  0.03588001  0.70364991     0.08910
Cu1253     Cu  0.87375295  0.14398229  0.67326111     0.44170
Cu1254     Cu  0.92960554  0.08139065  0.74920165     0.41990
Cu1255     Cu  0.88040854  0.17106520  0.77283522     0.43880
N1256       N  0.84443376  0.20082569  0.69962311    -0.34710
N1257       N  0.86272490  0.21568295  0.73081431    -0.28960
C1258       C  0.83667538  0.24787692  0.74435715    -0.05060
C1259       C  0.79578317  0.25011575  0.72452612     0.07150
C1260       C  0.80355633  0.22139907  0.69465153     0.00950
H1261       H  0.84131714  0.25709041  0.77270892     0.08600
H1262       H  0.77800435  0.21006917  0.67477229     0.07680
N1263       N  0.86673585  0.11276352  0.80324673    -0.36160
N1264       N  0.88837009  0.07620629  0.79338868    -0.28340
C1265       C  0.86578935  0.03903542  0.80489990    -0.03580
C1266       C  0.82810661  0.05225248  0.82347071     0.05030
C1267       C  0.82928189  0.09974201  0.82145046     0.03120
H1268       H  0.86926643  0.00597411  0.79290402     0.08230
H1269       H  0.80115501  0.12209206  0.82655840     0.07060
N1270       N  0.71390830  0.14347309  0.51908749    -0.27320
N1271       N  0.69640309  0.16412005  0.54740517    -0.35180
C1272       C  0.71596125  0.20616611  0.54966086     0.01020
C1273       C  0.74561208  0.21253480  0.52024835     0.07040
C1274       C  0.74579793  0.16984058  0.50444121    -0.06060
H1275       H  0.70262474  0.23314839  0.56616443     0.07710
H1276       H  0.75693077  0.16288216  0.47717524     0.08910
Cu1277     Cu  0.63694250  0.13657949  0.57199543     0.44170
Cu1278     Cu  0.67445144  0.11712346  0.47702925     0.41990
Cu1279     Cu  0.58811272  0.06421952  0.50052160     0.43880
N1280       N  0.58716224  0.08452816  0.58065608    -0.34710
N1281       N  0.58041244  0.05316003  0.55541276    -0.28960
C1282       C  0.55257986  0.02067028  0.56780423    -0.05060
C1283       C  0.53575216  0.03343983  0.60115658     0.07150
C1284       C  0.56028800  0.07347025  0.60921772     0.00950
H1285       H  0.54410981  0.99050538  0.55225721     0.08600
H1286       H  0.55840949  0.09292956  0.63387130     0.07680
N1287       N  0.58055432  0.10809910  0.45678983    -0.36160
N1288       N  0.61690807  0.12950142  0.44530645    -0.28340
C1289       C  0.60413500  0.16773389  0.42687209    -0.03580
C1290       C  0.55694106  0.16991718  0.42662952     0.05030
C1291       C  0.54374318  0.13242543  0.44716404     0.03120
H1292       H  0.62700610  0.19565929  0.42040509     0.08230
H1293       H  0.51160238  0.12894529  0.46049497     0.07060
N1294       N  0.93076936  0.45187050  0.54976803    -0.27340
N1295       N  0.91398775  0.42969762  0.57829356    -0.35180
C1296       C  0.93411790  0.44716323  0.60905088     0.01020
C1297       C  0.96495819  0.48168298  0.59911341     0.07040
C1298       C  0.95904479  0.48482368  0.56127300    -0.06060
H1299       H  0.92752117  0.43533348  0.63663711     0.07710
H1300       H  0.97339815  0.50953149  0.54253460     0.08910
Cu1301     Cu  0.86104684  0.38046403  0.57121236     0.44170
Cu1302     Cu  0.92259420  0.43576684  0.49527430     0.41990
Cu1303     Cu  0.82843564  0.38938553  0.47328130     0.43880
N1304       N  0.80261627  0.35091694  0.54508259    -0.34710
N1305       N  0.78609789  0.36984246  0.51454181    -0.28960
C1306       C  0.75479041  0.34246741  0.49949074    -0.05060
C1307       C  0.75473606  0.30043364  0.51755783     0.07150
C1308       C  0.78358369  0.30877501  0.54829814     0.00950
H1309       H  0.74448564  0.34854343  0.47141230     0.08600
H1310       H  0.79597556  0.28318038  0.56769565     0.07680
N1311       N  0.88375866  0.37061076  0.44360322    -0.36160
N1312       N  0.92185760  0.39222153  0.45179842    -0.28340
C1313       C  0.95691551  0.36684252  0.44196450    -0.03580
C1314       C  0.94059374  0.32650074  0.42757085     0.05030
C1315       C  0.89358717  0.33002552  0.42868085     0.03120
H1316       H  0.99105540  0.37177162  0.45245939     0.08230
H1317       H  0.86940320  0.30224644  0.42547916     0.07060
C1318       C  0.50019005  0.00709559  0.62369291    -0.02520
C1319       C  0.52951887  0.21159415  0.42419001    -0.06160
C1320       C  0.52597167  0.23650786  0.45647202    -0.17290
C1321       C  0.99462832  0.27148906  0.45901485     0.11040
C1322       C  0.96759408  0.28418709  0.42777548    -0.06080
C1323       C  0.97063833  0.25887319  0.64541641    -0.17320
C1324       C  0.50104348  0.22231193  0.64345696     0.11070
S1325       S  0.98902277  0.29638524  0.50379998    -0.32280
S1326       S  0.50132139  0.19015837  0.60153915    -0.32290
H1327       H  0.54699406  0.17682072  0.60496966     0.29080
H1328       H  0.94191669  0.30353654  0.50000862     0.29080
H1329       H  0.54625157  0.22692800  0.48065209     0.19670
H1330       H  0.94993438  0.26816287  0.62142966     0.19670
C1331       C  0.71390754  0.45995906  0.82371698    -0.06160
C1332       C  0.72256706  0.48801472  0.79304043    -0.17290
C1333       C  0.75863327  0.01891537  0.79301935     0.11040
C1334       C  0.78709344  0.02305529  0.82455792    -0.06080
C1335       C  0.77974650  0.99416558  0.85507690    -0.17320
C1336       C  0.74320512  0.46274335  0.85511225     0.11070
S1337       S  0.76782499  0.05085646  0.75117654    -0.32280
S1338       S  0.73599298  0.42774217  0.64573181    -0.32290
H1339       H  0.68884534  0.42114675  0.64131893     0.29080
H1340       H  0.81002128  0.03073147  0.74497943     0.29080
H1341       H  0.70130627  0.48539320  0.76834176     0.19670
H1342       H  0.80267199  0.99607795  0.62891097     0.19670
C1343       C  0.75088492  0.25564068  0.74534426    -0.02520
N1344       N  0.55225131  0.42808684  0.94323482    -0.27320
N1345       N  0.57726372  0.41770395  0.91502381    -0.35180
C1346       C  0.56190668  0.44275787  0.88581127     0.01020
C1347       C  0.52613222  0.47052616  0.89646481     0.07040
C1348       C  0.51966230  0.45702184  0.93253210    -0.06060
H1349       H  0.57556962  0.44105263  0.85877106     0.07710
H1350       H  0.49236268  0.46566287  0.95025387     0.08910
Cu1351     Cu  0.62721817  0.36597753  0.91960096     0.44170
Cu1352     Cu  0.56560641  0.41246186  0.99745065     0.41990
Cu1353     Cu  0.61598124  0.32058439  0.01388619     0.43880
N1354       N  0.65689024  0.30563750  0.94198037    -0.34710
N1355       N  0.63695420  0.28462739  0.96957424    -0.28960
C1356       C  0.66455006  0.25317442  0.98384955    -0.05060
C1357       C  0.70762040  0.25827084  0.96956727     0.07150
C1358       C  0.69972645  0.28926437  0.94024621     0.00950
H1359       H  0.65678848  0.23849166  0.01009556     0.08600
H1360       H  0.72567404  0.30499768  0.92362138     0.07680
N1361       N  0.63142253  0.37313049  0.04930891    -0.36160
N1362       N  0.60871270  0.41065332  0.04240684    -0.28340
C1363       C  0.63270225  0.44625688  0.05518173    -0.03580
C1364       C  0.67269332  0.43099581  0.07150193     0.05030
C1365       C  0.67094169  0.38390454  0.06708520     0.03120
H1366       H  0.62690478  0.48083230  0.04603124     0.08230
H1367       H  0.69949857  0.36108081  0.06997431     0.07060
N1368       N  0.94640231  0.07653959  0.94517111    -0.27320
N1369       N  0.92313477  0.09232901  0.91631333    -0.35180
C1370       C  0.93963819  0.07186117  0.88624414     0.01020
C1371       C  0.97437031  0.04159029  0.89711753     0.07040
C1372       C  0.97886908  0.04865747  0.93453278    -0.06060
H1373       H  0.92729202  0.07804115  0.85851541     0.07710
H1374       H  0.00474740  0.03629994  0.95353902     0.08910
Cu1375     Cu  0.87357790  0.14396452  0.92322558     0.44170
Cu1376     Cu  0.92967022  0.08159089  0.99913882     0.41990
Cu1377     Cu  0.88046098  0.17122917  0.02277640     0.43880
N1378       N  0.84422490  0.20079787  0.94958393    -0.34710
N1379       N  0.86255482  0.21572682  0.98073838    -0.28960
C1380       C  0.83647025  0.24787768  0.99429919    -0.05060
C1381       C  0.79554051  0.25003586  0.97451555     0.07150
C1382       C  0.80330785  0.22130456  0.94464791     0.00950
H1383       H  0.84116129  0.25712863  0.02263746     0.08600
H1384       H  0.77774098  0.20992261  0.92480092     0.07680
N1385       N  0.86683885  0.11295099  0.05322287    -0.36160
N1386       N  0.88844260  0.07639030  0.04333299    -0.28340
C1387       C  0.86584633  0.03922600  0.05483638    -0.03580
C1388       C  0.82820307  0.05244967  0.07345490     0.05030
C1389       C  0.82940139  0.09993871  0.07145252     0.03120
H1390       H  0.86928254  0.00617587  0.04281374     0.08230
H1391       H  0.80128999  0.12229829  0.07658555     0.07060
N1392       N  0.71399110  0.14353465  0.76904075    -0.27320
N1393       N  0.69647932  0.16418045  0.79735620    -0.35180
C1394       C  0.71603496  0.20622777  0.79961505     0.01020
C1395       C  0.74569239  0.21259715  0.77020704     0.07040
C1396       C  0.74588401  0.16990251  0.75439957    -0.06060
H1397       H  0.70268963  0.23321074  0.81611307     0.07710
H1398       H  0.75702414  0.16294535  0.72713513     0.08910
Cu1399     Cu  0.63701187  0.13663634  0.82193377     0.44170
Cu1400     Cu  0.67453834  0.11716883  0.72698575     0.41990
Cu1401     Cu  0.58823901  0.06418660  0.75049602     0.43880
N1402       N  0.58722950  0.08458973  0.83060760    -0.34710
N1403       N  0.58050070  0.05318709  0.80538936    -0.28960
C1404       C  0.55264147  0.02072533  0.81778949    -0.05060
C1405       C  0.53578222  0.03354565  0.85111796     0.07150
C1406       C  0.56032179  0.07357819  0.85915837     0.00950
H1407       H  0.54416972  0.99054645  0.80226073     0.08600
H1408       H  0.55842284  0.09307078  0.88378970     0.07680
N1409       N  0.58063665  0.10808193  0.70677837    -0.36160
N1410       N  0.61697088  0.12950850  0.69528283    -0.28340
C1411       C  0.60416473  0.16773803  0.67685949    -0.03580
C1412       C  0.55697039  0.16989706  0.67664119     0.05030
C1413       C  0.54380681  0.13239322  0.69717688     0.03120
H1414       H  0.62701653  0.19567597  0.67038328     0.08230
H1415       H  0.51167768  0.12889010  0.71052243     0.07060
N1416       N  0.93083510  0.45195049  0.79972960    -0.27340
N1417       N  0.91402981  0.42980622  0.82825951    -0.35180
C1418       C  0.93413426  0.44730357  0.85901507     0.01020
C1419       C  0.96498605  0.48180889  0.84907266     0.07040
C1420       C  0.95909900  0.48491696  0.81122820    -0.06060
H1421       H  0.92750827  0.43551040  0.88660424     0.07710
H1422       H  0.97347063  0.50960548  0.79248268     0.08910
Cu1423     Cu  0.86109320  0.38056577  0.82117925     0.44170
Cu1424     Cu  0.92269331  0.43578769  0.74524629     0.41990
Cu1425     Cu  0.82849649  0.38946631  0.72323900     0.43880
N1426       N  0.80267877  0.35099525  0.79504076    -0.34710
N1427       N  0.78615850  0.36991653  0.76449906    -0.28960
C1428       C  0.75485826  0.34253376  0.74944720    -0.05060
C1429       C  0.75481113  0.30049902  0.76751384     0.07150
C1430       C  0.78365669  0.30884806  0.79825466     0.00950
H1431       H  0.74455045  0.34861225  0.72137057     0.08600
H1432       H  0.79604881  0.28325865  0.81765649     0.07680
N1433       N  0.88381950  0.37064664  0.69357675    -0.36160
N1434       N  0.92193581  0.39221974  0.70178540    -0.28340
C1435       C  0.95697469  0.36680676  0.69196235    -0.03580
C1436       C  0.94062030  0.32648485  0.67755532     0.05030
C1437       C  0.89361660  0.33005406  0.67865289     0.03120
H1438       H  0.99111498  0.37169866  0.70247192     0.08230
H1439       H  0.86940824  0.30229795  0.67544203     0.07060
C1440       C  0.50019823  0.00723529  0.87365582    -0.02520
C1441       C  0.52952536  0.21155982  0.67420753    -0.06160
C1442       C  0.52591391  0.23643424  0.70650359    -0.17290
C1443       C  0.99452416  0.27139425  0.70904988     0.11040
C1444       C  0.96757984  0.28414586  0.67777542    -0.06080
C1445       C  0.97052867  0.25904780  0.89534056    -0.17320
C1446       C  0.50092899  0.22250420  0.89329679     0.11070
S1447       S  0.98882309  0.29625551  0.75383770    -0.32280
S1448       S  0.50061837  0.18996750  0.85155918    -0.32290
H1449       H  0.54633103  0.17667868  0.85465899     0.29080
H1450       H  0.94173250  0.30345947  0.74997067     0.29080
H1451       H  0.54615096  0.22682958  0.73070045     0.19670
H1452       H  0.94942815  0.26807336  0.87151273     0.19670
C1453       C  0.71395662  0.46023042  0.07379005    -0.06160
C1454       C  0.72265176  0.48820854  0.04307617    -0.17290
C1455       C  0.75873772  0.01908102  0.04302751     0.11040
C1456       C  0.78717613  0.02327746  0.07457222    -0.06080
C1457       C  0.77979086  0.99446613  0.10513185    -0.17320
C1458       C  0.74323494  0.46306405  0.10519307     0.11070
S1459       S  0.76799331  0.05091595  0.00114490    -0.32280
S1460       S  0.73604715  0.42756867  0.89570212    -0.32290
H1461       H  0.68890825  0.42089787  0.89130465     0.29080
H1462       H  0.81003148  0.03049255  0.99489029     0.29080
H1463       H  0.70140204  0.48554593  0.01837425     0.19670
H1464       H  0.80268287  0.99595375  0.87884692     0.19670
C1465       C  0.75066487  0.75552191  0.99537512    -0.02520
N1466       N  0.55217876  0.92785856  0.19316315    -0.27320
N1467       N  0.57724086  0.91755937  0.16496094    -0.35180
C1468       C  0.56187916  0.94263487  0.13576178     0.01020
C1469       C  0.52605186  0.97032711  0.14641624     0.07040
C1470       C  0.51955066  0.95675022  0.18246202    -0.06060
H1471       H  0.57556870  0.94100021  0.10872955     0.07710
H1472       H  0.49222904  0.96534796  0.20017588     0.08910
Cu1473     Cu  0.62726767  0.86590538  0.16954407     0.44170
Cu1474     Cu  0.56560283  0.91228878  0.24738134     0.41990
Cu1475     Cu  0.61602877  0.82047533  0.26385316     0.43880
N1476       N  0.65696259  0.80558811  0.19194541    -0.34710
N1477       N  0.63701541  0.78455570  0.21952386    -0.28960
C1478       C  0.66462390  0.75312048  0.23380889    -0.05060
C1479       C  0.70770739  0.75825941  0.21955810     0.07150
C1480       C  0.69981357  0.78924782  0.19023409     0.00950
H1481       H  0.65683801  0.73841085  0.26003932     0.08600
H1482       H  0.72575936  0.80499006  0.17361290     0.07680
N1483       N  0.63144536  0.87303807  0.29926565    -0.36160
N1484       N  0.60873212  0.91055020  0.29233000    -0.28340
C1485       C  0.63271660  0.94617117  0.30507831    -0.03580
C1486       C  0.67269670  0.93093301  0.32143268     0.05030
C1487       C  0.67095376  0.88383556  0.31705003     0.03120
H1488       H  0.62692829  0.98073133  0.29588589     0.08230
H1489       H  0.69951147  0.86101686  0.31997026     0.07060
N1490       N  0.94632811  0.57632122  0.19517886    -0.27320
N1491       N  0.92309480  0.59217194  0.16632518    -0.35180
C1492       C  0.93957799  0.57170338  0.13624732     0.01020
C1493       C  0.97425723  0.54136487  0.14710977     0.07040
C1494       C  0.97874713  0.54838815  0.18453205    -0.06060
H1495       H  0.92726230  0.57793809  0.10851820     0.07710
H1496       H  0.00460204  0.53598297  0.20353807     0.08910
Cu1497     Cu  0.87361155  0.64387894  0.17325865     0.44170
Cu1498     Cu  0.92965497  0.58142726  0.24915881     0.41990
Cu1499     Cu  0.88051415  0.67112228  0.27280903     0.43880
N1500       N  0.84428461  0.70072765  0.19962191    -0.34710
N1501       N  0.86260928  0.71564015  0.23078411    -0.28960
C1502       C  0.83653788  0.74780598  0.24434179    -0.05060
C1503       C  0.79562207  0.74999759  0.22454200     0.07150
C1504       C  0.80338201  0.72126110  0.19467607     0.00950
H1505       H  0.84121337  0.75705054  0.27268401     0.08600
H1506       H  0.77781513  0.70989587  0.17482275     0.07680
N1507       N  0.86688905  0.61285401  0.30326959    -0.36160
N1508       N  0.88848218  0.57628050  0.29339237    -0.28340
C1509       C  0.86587776  0.53912894  0.30491273    -0.03580
C1510       C  0.82822935  0.55237403  0.32351591     0.05030
C1511       C  0.82944555  0.59986236  0.32149987     0.03120
H1512       H  0.86930281  0.50607148  0.29289923     0.08230
H1513       H  0.80133805  0.62223326  0.32661726     0.07060
N1514       N  0.71381103  0.64338374  0.01903904    -0.27320
N1515       N  0.69632243  0.66401005  0.04737346    -0.35180
C1516       C  0.71587001  0.70605871  0.04963519     0.01020
C1517       C  0.74549651  0.71245434  0.02021102     0.07040
C1518       C  0.74567853  0.66977214  0.00438397    -0.06060
H1519       H  0.70254614  0.73302420  0.06616311     0.07710
H1520       H  0.75678956  0.66283426  0.97710851     0.08910
Cu1521     Cu  0.63688436  0.63646118  0.07198176     0.44170
Cu1522     Cu  0.67433789  0.61705976  0.97698135     0.41990
Cu1523     Cu  0.58768054  0.56454520  0.00036429     0.43880
N1524       N  0.58704309  0.58446360  0.08059134    -0.34710
N1525       N  0.58011214  0.55325098  0.05524939    -0.28960
C1526       C  0.55229083  0.52073621  0.06761684    -0.05060
C1527       C  0.53562737  0.53336463  0.10106805     0.07150
C1528       C  0.56029406  0.57329219  0.10920394     0.00950
H1529       H  0.54377144  0.49063427  0.05200750     0.08600
H1530       H  0.55858874  0.59260677  0.13394553     0.07680
N1531       N  0.58042251  0.60843186  0.95660388    -0.36160
N1532       N  0.61689868  0.62967749  0.94518780    -0.28340
C1533       C  0.60433261  0.66793357  0.92669181    -0.03580
C1534       C  0.55714393  0.67028607  0.92631789     0.05030
C1535       C  0.54373157  0.63287165  0.94684865     0.03120
H1536       H  0.62733099  0.69576481  0.92025790     0.08230
H1537       H  0.51151363  0.62952233  0.96007958     0.07060
N1538       N  0.93055180  0.95184135  0.04973813    -0.27340
N1539       N  0.91387856  0.92957813  0.07826269    -0.35180
C1540       C  0.93407228  0.94699685  0.10901276     0.01020
C1541       C  0.96483973  0.98158142  0.09907187     0.07040
C1542       C  0.95880890  0.98480679  0.06124618    -0.06060
H1543       H  0.92756142  0.93509786  0.13659496     0.07710
H1544       H  0.97304329  0.00960328  0.04252157     0.08910
Cu1545     Cu  0.86096830  0.88030949  0.07121118     0.44170
Cu1546     Cu  0.92228794  0.93587953  0.99521471     0.41990
Cu1547     Cu  0.82833390  0.88915544  0.97329391     0.43880
N1548       N  0.80250494  0.85079803  0.04510952    -0.34710
N1549       N  0.78598360  0.86974340  0.01457830    -0.28960
C1550       C  0.75464780  0.84239714  0.99953304    -0.05060
C1551       C  0.75460035  0.80035058  0.01757807     0.07150
C1552       C  0.78345956  0.80866183  0.04831587     0.00950
H1553       H  0.74433297  0.84848734  0.97145754     0.08600
H1554       H  0.79586148  0.78304716  0.06769186     0.07680
N1555       N  0.88367455  0.87059163  0.94356063    -0.36160
N1556       N  0.92167818  0.89240441  0.95168808    -0.28340
C1557       C  0.95683950  0.86721175  0.94179338    -0.03580
C1558       C  0.94069781  0.82676587  0.92746630     0.05030
C1559       C  0.89367568  0.83004846  0.92864353     0.03120
H1560       H  0.99097549  0.87233743  0.95220840     0.08230
H1561       H  0.86962434  0.80214738  0.92548324     0.07060
C1562       C  0.50008178  0.50701768  0.12362655    -0.02520
C1563       C  0.52987092  0.71205596  0.92382678    -0.06160
C1564       C  0.52675334  0.73724167  0.95600569    -0.17290
C1565       C  0.99537904  0.77216146  0.95867382     0.11040
C1566       C  0.96792162  0.78459205  0.92759841    -0.06080
C1567       C  0.97052609  0.75874854  0.14553282    -0.17320
C1568       C  0.50089562  0.72217150  0.14350337     0.11070
S1569       S  0.99022295  0.79723968  0.00343755    -0.32280
S1570       S  0.50072794  0.68975896  0.10170528    -0.32290
H1571       H  0.54641927  0.67642127  0.10488998     0.29080
H1572       H  0.94304283  0.80411645  0.00001079     0.29080
H1573       H  0.54731943  0.72783358  0.98007297     0.19670
H1574       H  0.94956053  0.76788458  0.12165528     0.19670
C1575       C  0.71395172  0.96018062  0.32375923    -0.06160
C1576       C  0.72266841  0.98818884  0.29306707    -0.17290
C1577       C  0.75875934  0.51906080  0.29305035     0.11040
C1578       C  0.78718514  0.52322140  0.32460647    -0.06080
C1579       C  0.77977380  0.49438688  0.35514737    -0.17320
C1580       C  0.74320785  0.96298953  0.35517779     0.11070
S1581       S  0.76804341  0.55092996  0.25118860    -0.32280
S1582       S  0.73603457  0.92797206  0.14582562    -0.32290
H1583       H  0.68890147  0.92127419  0.14140417     0.29080
H1584       H  0.81009176  0.53052152  0.24494491     0.29080
H1585       H  0.70143750  0.98554861  0.26835332     0.19670
H1586       H  0.80271384  0.49629573  0.12890700     0.19670
C1587       C  0.75074110  0.75553173  0.24538478    -0.02520
N1588       N  0.55211954  0.92779532  0.44319514    -0.27320
N1589       N  0.57724344  0.91756511  0.41501268    -0.35180
C1590       C  0.56193635  0.94269375  0.38582713     0.01020
C1591       C  0.52607092  0.97034823  0.39647046     0.07040
C1592       C  0.51950197  0.95669811  0.43249014    -0.06060
H1593       H  0.57570496  0.94112445  0.35881671     0.07710
H1594       H  0.49215457  0.96527519  0.45018508     0.08910
Cu1595     Cu  0.62729200  0.86593674  0.41958619     0.44170
Cu1596     Cu  0.56551430  0.91218260  0.49740880     0.41990
Cu1597     Cu  0.61600018  0.82038329  0.51383925     0.43880
N1598       N  0.65700034  0.80560587  0.44194136    -0.34710
N1599       N  0.63705249  0.78452826  0.46949812    -0.28960
C1600       C  0.66468346  0.75310905  0.48377673    -0.05060
C1601       C  0.70777230  0.75830223  0.46954514     0.07150
C1602       C  0.69986632  0.78930442  0.44023385     0.00950
H1603       H  0.65689242  0.73836526  0.50999386     0.08600
H1604       H  0.72580621  0.80508010  0.42362624     0.07680
N1605       N  0.63142542  0.87294569  0.54924959    -0.36160
N1606       N  0.60870747  0.91045621  0.54231807    -0.28340
C1607       C  0.63270722  0.94608113  0.55504056    -0.03580
C1608       C  0.67269338  0.93084664  0.57138592     0.05030
C1609       C  0.67094524  0.88374759  0.56701594     0.03120
H1610       H  0.62691232  0.98063868  0.54584485     0.08230
H1611       H  0.69950138  0.86092721  0.56993515     0.07060
N1612       N  0.94633857  0.57631319  0.44525388    -0.27320
N1613       N  0.92314987  0.59220907  0.41639213    -0.35180
C1614       C  0.93965820  0.57176662  0.38631353     0.01020
C1615       C  0.97430575  0.54139783  0.39718339     0.07040
C1616       C  0.97875049  0.54836673  0.43461445    -0.06060
H1617       H  0.92737845  0.57803812  0.35857822     0.07710
H1618       H  0.00456994  0.53591469  0.45363250     0.08910
Cu1619     Cu  0.87368068  0.64393001  0.42329751     0.44170
Cu1620     Cu  0.92965470  0.58142104  0.49923054     0.41990
Cu1621     Cu  0.88047570  0.67111763  0.52284122     0.43880
N1622       N  0.84435316  0.70078260  0.44964418    -0.34710
N1623       N  0.86266050  0.71567598  0.48081794    -0.28960
C1624       C  0.83659521  0.74785319  0.49436560    -0.05060
C1625       C  0.79568982  0.75005976  0.47455081     0.07150
C1626       C  0.80346038  0.72132986  0.44468339     0.00950
H1627       H  0.84125596  0.75708772  0.52271091     0.08600
H1628       H  0.77790231  0.70997563  0.42481850     0.07680
N1629       N  0.86683912  0.61284647  0.55329857    -0.36160
N1630       N  0.88846521  0.57627917  0.54345181    -0.28340
C1631       C  0.86587585  0.53912033  0.55497693    -0.03580
C1632       C  0.82819303  0.55235509  0.57353995     0.05030
C1633       C  0.82938234  0.59984321  0.57150596     0.03120
H1634       H  0.86933611  0.50605625  0.54298351     0.08230
H1635       H  0.80125536  0.62220092  0.57659493     0.07060
N1636       N  0.71387369  0.64342032  0.26912132    -0.27320
N1637       N  0.69635236  0.66408081  0.29742564    -0.35180
C1638       C  0.71589758  0.70613382  0.29966684     0.01020
C1639       C  0.74555145  0.71249531  0.27025532     0.07040
C1640       C  0.74575160  0.66979299  0.25446394    -0.06060
H1641       H  0.70255318  0.73312090  0.31616118     0.07710
H1642       H  0.75689317  0.66281989  0.22720322     0.08910
Cu1643     Cu  0.63688295  0.63654854  0.32200909     0.44170
Cu1644     Cu  0.67444770  0.61700057  0.22707740     0.41990
Cu1645     Cu  0.58800994  0.56422571  0.25051448     0.43880
N1646       N  0.58708443  0.58451161  0.33066024    -0.34710
N1647       N  0.58031571  0.55315893  0.30540703    -0.28960
C1648       C  0.55249267  0.52066166  0.31779906    -0.05060
C1649       C  0.53568005  0.53341643  0.35116100     0.07150
C1650       C  0.56022536  0.57343980  0.35922857     0.00950
H1651       H  0.54402481  0.49049924  0.30224805     0.08600
H1652       H  0.55836713  0.59288241  0.38389288     0.07680
N1653       N  0.58056243  0.60806469  0.20674578    -0.36160
N1654       N  0.61696010  0.62941982  0.19529721    -0.28340
C1655       C  0.60425955  0.66765640  0.17683695    -0.03580
C1656       C  0.55706648  0.66988957  0.17653219     0.05030
C1657       C  0.54379121  0.63242022  0.19705921     0.03120
H1658       H  0.62717145  0.69555873  0.17039911     0.08230
H1659       H  0.51162203  0.62898673  0.21035365     0.07060
N1660       N  0.93069481  0.95185575  0.29977405    -0.27340
N1661       N  0.91393000  0.92966544  0.32829771    -0.35180
C1662       C  0.93406942  0.94712242  0.35905490     0.01020
C1663       C  0.96489813  0.98165370  0.34911839     0.07040
C1664       C  0.95896747  0.98480947  0.31128084    -0.06060
H1665       H  0.92748762  0.93527866  0.38663987     0.07710
H1666       H  0.97330408  0.00953070  0.29254517     0.08910
Cu1667     Cu  0.86100220  0.88041639  0.32121430     0.44170
Cu1668     Cu  0.92251886  0.93577644  0.24527573     0.41990
Cu1669     Cu  0.82844199  0.88925856  0.22327200     0.43880
N1670       N  0.80257808  0.85086414  0.29507680    -0.34710
N1671       N  0.78607387  0.86978556  0.26452956    -0.28960
C1672       C  0.75475992  0.84241776  0.24947861    -0.05060
C1673       C  0.75469182  0.80038847  0.26755133     0.07150
C1674       C  0.78353765  0.80872591  0.29829333     0.00950
H1675       H  0.74446718  0.84848475  0.22139561     0.08600
H1676       H  0.79592364  0.78312974  0.31769201     0.07680
N1677       N  0.88380836  0.87051228  0.19363821    -0.36160
N1678       N  0.92186941  0.89219265  0.20182753    -0.28340
C1679       C  0.95697245  0.86686040  0.19202052    -0.03580
C1680       C  0.94072154  0.82647245  0.17766195     0.05030
C1681       C  0.89370759  0.82992624  0.17874865     0.03120
H1682       H  0.99110616  0.87187884  0.20249361     0.08230
H1683       H  0.86956447  0.80211258  0.17554160     0.07060
C1684       C  0.50012198  0.50706666  0.37369854    -0.02520
C1685       C  0.52970327  0.71160448  0.17409731    -0.06160
C1686       C  0.52644583  0.73667751  0.20632379    -0.17290
C1687       C  0.99507026  0.77163207  0.20896595     0.11040
C1688       C  0.96779779  0.78420520  0.17782530    -0.06080
C1689       C  0.97060366  0.75885907  0.39543860    -0.17320
C1690       C  0.50095133  0.72231172  0.39346500     0.11070
S1691       S  0.98974736  0.79662741  0.25374373    -0.32280
S1692       S  0.50113754  0.69009968  0.35157401    -0.32290
H1693       H  0.54681307  0.67675852  0.35495627     0.29080
H1694       H  0.94260793  0.80368374  0.25015721     0.29080
H1695       H  0.54691116  0.72719041  0.23042645     0.19670
H1696       H  0.94984219  0.76811255  0.37147499     0.19670
C1697       C  0.71394529  0.96009895  0.57372194    -0.06160
C1698       C  0.72264765  0.98814226  0.54304733    -0.17290
C1699       C  0.75873629  0.51903827  0.54304855     0.11040
C1700       C  0.78716411  0.52317781  0.57460634    -0.06080
C1701       C  0.77976902  0.49430541  0.60512706    -0.17320
C1702       C  0.74320928  0.96288207  0.60513731     0.11070
S1703       S  0.76799971  0.55094909  0.50120285    -0.32280
S1704       S  0.73596652  0.92787737  0.39579129    -0.32290
H1705       H  0.68882519  0.92124808  0.39136018     0.29080
H1706       H  0.81014770  0.53071842  0.49501358     0.29080
H1707       H  0.70141222  0.98552125  0.51833468     0.19670
H1708       H  0.80268125  0.49619179  0.37893439     0.19670
C1709       C  0.75079934  0.75558482  0.49538157    -0.02520
N1710       N  0.55214228  0.92778854  0.69319583    -0.27320
N1711       N  0.57730024  0.91759038  0.66502530    -0.35180
C1712       C  0.56202020  0.94273941  0.63584343     0.01020
C1713       C  0.52613345  0.97037243  0.64647321     0.07040
C1714       C  0.51952593  0.95668943  0.68248085    -0.06060
H1715       H  0.57582156  0.94119635  0.60884408     0.07710
H1716       H  0.49215566  0.96524791  0.70015906     0.08910
Cu1717     Cu  0.62735331  0.86596861  0.66958532     0.44170
Cu1718     Cu  0.56548909  0.91212739  0.74741258     0.41990
Cu1719     Cu  0.61598472  0.82030426  0.76376968     0.43880
N1720       N  0.65707258  0.80562212  0.69189414    -0.34710
N1721       N  0.63712088  0.78450514  0.71942979    -0.28960
C1722       C  0.66477000  0.75310203  0.73370790    -0.05060
C1723       C  0.70786536  0.75834266  0.71949765     0.07150
C1724       C  0.69995205  0.78935431  0.69019458     0.00950
H1725       H  0.65696849  0.73832739  0.75991161     0.08600
H1726       H  0.72588907  0.80515839  0.67360072     0.07680
N1727       N  0.63139202  0.87282100  0.79922781    -0.36160
N1728       N  0.60866060  0.91033387  0.79233847    -0.28340
C1729       C  0.63265489  0.94594487  0.80509376    -0.03580
C1730       C  0.67265772  0.93070114  0.82140481     0.05030
C1731       C  0.67091840  0.88360934  0.81698993     0.03120
H1732       H  0.62685662  0.98051090  0.79592452     0.08230
H1733       H  0.69948421  0.86079604  0.81986970     0.07060
N1734       N  0.94635346  0.57631868  0.69524137    -0.27320
N1735       N  0.92320801  0.59224690  0.66636908    -0.35180
C1736       C  0.93974355  0.57181785  0.63629518     0.01020
C1737       C  0.97436036  0.54142166  0.64717995     0.07040
C1738       C  0.97876203  0.54835989  0.68461689    -0.06060
H1739       H  0.92750299  0.57811672  0.60855292     0.07710
H1740       H  0.00455010  0.53588135  0.70365111     0.08910
Cu1741     Cu  0.87375164  0.64398062  0.67326197     0.44170
Cu1742     Cu  0.92960561  0.58139099  0.74920299     0.41990
Cu1743     Cu  0.88040764  0.67106505  0.77283570     0.43880
N1744       N  0.84443234  0.70082414  0.69962359    -0.34710
N1745       N  0.86272400  0.71568212  0.73081436    -0.28960
C1746       C  0.83667432  0.74787587  0.74435730    -0.05060
C1747       C  0.79578154  0.75011355  0.72452698     0.07150
C1748       C  0.80355443  0.72139670  0.69465248     0.00950
H1749       H  0.84131658  0.75708984  0.77270894     0.08600
H1750       H  0.77800210  0.71006596  0.67477384     0.07680
N1751       N  0.86673483  0.61276358  0.80324739    -0.36160
N1752       N  0.88836938  0.57620643  0.79338959    -0.28340
C1753       C  0.86578886  0.53903551  0.80490100    -0.03580
C1754       C  0.82810592  0.55225246  0.82347162     0.05030
C1755       C  0.82928087  0.59974198  0.82145107     0.03120
H1756       H  0.86926627  0.50597409  0.79290544     0.08230
H1757       H  0.80115382  0.62209190  0.82655883     0.07060
N1758       N  0.71390073  0.64348191  0.51908262    -0.27320
N1759       N  0.69639819  0.66412923  0.54740125    -0.35180
C1760       C  0.71595901  0.70617413  0.54965703     0.01020
C1761       C  0.74560943  0.71254132  0.52024401     0.07040
C1762       C  0.74579212  0.66984730  0.50443639    -0.06060
H1763       H  0.70262433  0.73315712  0.56616084     0.07710
H1764       H  0.75692353  0.66288899  0.47716996     0.08910
Cu1765     Cu  0.63693785  0.63658998  0.57199309     0.44170
Cu1766     Cu  0.67443900  0.61713877  0.47702432     0.41990
Cu1767     Cu  0.58810235  0.56423374  0.50051826     0.43880
N1768       N  0.58715954  0.58453655  0.58065383    -0.34710
N1769       N  0.58041076  0.55316889  0.55540997    -0.28960
C1770       C  0.55258106  0.52067675  0.56780166    -0.05060
C1771       C  0.53575296  0.53344450  0.60115437     0.07150
C1772       C  0.56028667  0.57347618  0.60921580     0.00950
H1773       H  0.54411321  0.49051146  0.55225446     0.08600
H1774       H  0.55840744  0.59293478  0.63386978     0.07680
N1775       N  0.58054148  0.60811211  0.45678572    -0.36160
N1776       N  0.61689466  0.62951511  0.44530201    -0.28340
C1777       C  0.60412048  0.66774592  0.42686593    -0.03580
C1778       C  0.55692636  0.66992741  0.42662234     0.05030
C1779       C  0.54372942  0.63243616  0.44715796     0.03120
H1780       H  0.62699070  0.69567181  0.42039828     0.08230
H1781       H  0.51158830  0.62895551  0.46048829     0.07060
N1782       N  0.93077264  0.95186729  0.54976839    -0.27340
N1783       N  0.91399138  0.92969514  0.57829430    -0.35180
C1784       C  0.93412068  0.94716297  0.60905118     0.01020
C1785       C  0.96495962  0.98168374  0.59911264     0.07040
C1786       C  0.95904553  0.98482290  0.56127234    -0.06060
H1787       H  0.92752442  0.93533406  0.63663779     0.07710
H1788       H  0.97339624  0.00953122  0.54253310     0.08910
Cu1789     Cu  0.86105018  0.88046194  0.57121179     0.44170
Cu1790     Cu  0.92260479  0.93575642  0.49527623     0.41990
Cu1791     Cu  0.82845073  0.88937658  0.47327530     0.43880
N1792       N  0.80261980  0.85091932  0.54507787    -0.34710
N1793       N  0.78610651  0.86984477  0.51453526    -0.28960
C1794       C  0.75479615  0.84247295  0.49948408    -0.05060
C1795       C  0.75473566  0.80044009  0.51755256     0.07150
C1796       C  0.78358189  0.80877986  0.54829400     0.00950
H1797       H  0.74449450  0.84854805  0.47140483     0.08600
H1798       H  0.79596974  0.78318464  0.56769268     0.07680
N1799       N  0.88377803  0.87059828  0.44360344    -0.36160
N1800       N  0.92187689  0.89220594  0.45180445    -0.28340
C1801       C  0.95693556  0.86682422  0.44197625    -0.03580
C1802       C  0.94061369  0.82648504  0.42757783     0.05030
C1803       C  0.89360692  0.83001313  0.42868120     0.03120
H1804       H  0.99107368  0.87175020  0.45247701     0.08230
H1805       H  0.86942156  0.80223604  0.42547488     0.07060
C1806       C  0.50019158  0.50709849  0.62369039    -0.02520
C1807       C  0.52950356  0.71160400  0.42418311    -0.06160
C1808       C  0.52596503  0.73652276  0.45646336    -0.17290
C1809       C  0.99462825  0.77146121  0.45902980     0.11040
C1810       C  0.96761070  0.78416957  0.42778399    -0.06080
C1811       C  0.97064903  0.75887395  0.64541527    -0.17320
C1812       C  0.50104804  0.72230976  0.64346141     0.11070
S1813       S  0.98900285  0.79634806  0.50381624    -0.32280
S1814       S  0.50133677  0.69016286  0.60154063    -0.32290
H1815       H  0.54701005  0.67682854  0.60497592     0.29080
H1816       H  0.94189916  0.80350625  0.50001070     0.29080
H1817       H  0.54625099  0.72694633  0.48064103     0.19670
H1818       H  0.94995016  0.76816730  0.62142660     0.19670
C1819       C  0.71390741  0.95996010  0.82371613    -0.06160
C1820       C  0.72256575  0.98801740  0.79304030    -0.17290
C1821       C  0.75863413  0.51891322  0.79301957     0.11040
C1822       C  0.78709290  0.52305501  0.82455877    -0.06080
C1823       C  0.77974487  0.49416685  0.85507849    -0.17320
C1824       C  0.74320650  0.96274238  0.85511062     0.11070
S1825       S  0.76782698  0.55085293  0.75117627    -0.32280
S1826       S  0.73598660  0.92772596  0.64572833    -0.32290
H1827       H  0.68883915  0.92112981  0.64131502     0.29080
H1828       H  0.81002196  0.53072512  0.74497925     0.29080
H1829       H  0.70130399  0.98539729  0.76834207     0.19670
H1830       H  0.80267881  0.49609354  0.62891358     0.19670
C1831       C  0.75088382  0.75563803  0.74534597    -0.02520
N1832       N  0.55225256  0.92808798  0.94323398    -0.27320
N1833       N  0.57726505  0.91770518  0.91502300    -0.35180
C1834       C  0.56190834  0.94275943  0.88581052     0.01020
C1835       C  0.52613401  0.97052784  0.89646400     0.07040
C1836       C  0.51966384  0.95702333  0.93253125    -0.06060
H1837       H  0.57557130  0.94105431  0.85877036     0.07710
H1838       H  0.49236409  0.96566430  0.95025292     0.08910
Cu1839     Cu  0.62721906  0.86597838  0.91960009     0.44170
Cu1840     Cu  0.56560737  0.91246217  0.99744979     0.41990
Cu1841     Cu  0.61598112  0.82058392  0.01388506     0.43880
N1842       N  0.65689051  0.80563795  0.94197926    -0.34710
N1843       N  0.63695409  0.78462752  0.96957281    -0.28960
C1844       C  0.66454963  0.75317416  0.98384795    -0.05060
C1845       C  0.70762007  0.75827045  0.96956586     0.07150
C1846       C  0.69972663  0.78926460  0.94024517     0.00950
H1847       H  0.65678793  0.73849115  0.01009388     0.08600
H1848       H  0.72567444  0.80499793  0.92362057     0.07680
N1849       N  0.63142263  0.87312941  0.04930828    -0.36160
N1850       N  0.60871315  0.91065250  0.04240637    -0.28340
C1851       C  0.63270287  0.94625567  0.05518173    -0.03580
C1852       C  0.67269365  0.93099414  0.07150208     0.05030
C1853       C  0.67094174  0.88390295  0.06708488     0.03120
H1854       H  0.62690611  0.98083114  0.04603115     0.08230
H1855       H  0.69949846  0.86107900  0.06997390     0.07060
N1856       N  0.94640463  0.57654098  0.94516974    -0.27320
N1857       N  0.92313661  0.59232952  0.91631192    -0.35180
C1858       C  0.93963999  0.57186130  0.88624290     0.01020
C1859       C  0.97437249  0.54159096  0.89711648     0.07040
C1860       C  0.97887158  0.54865899  0.93453157    -0.06060
H1861       H  0.92729345  0.57804051  0.85851420     0.07710
H1862       H  0.00475017  0.53630203  0.95353780     0.08910
Cu1863     Cu  0.87357872  0.64396401  0.92322402     0.44170
Cu1864     Cu  0.92967158  0.58159130  0.99913725     0.41990
Cu1865     Cu  0.88046259  0.67122916  0.02277494     0.43880
N1866       N  0.84422491  0.70079670  0.94958260    -0.34710
N1867       N  0.86255487  0.71572601  0.98073691    -0.28960
C1868       C  0.83646983  0.74787631  0.99429792    -0.05060
C1869       C  0.79554002  0.75003409  0.97451435     0.07150
C1870       C  0.80330754  0.72130280  0.94464674     0.00950
H1871       H  0.84116103  0.75712734  0.02263614     0.08600
H1872       H  0.77774081  0.70992075  0.92479968     0.07680
N1873       N  0.86683998  0.61295100  0.05322115    -0.36160
N1874       N  0.88844328  0.57639020  0.04333093    -0.28340
C1875       C  0.86584666  0.53922601  0.05483412    -0.03580
C1876       C  0.82820378  0.55244993  0.07345302     0.05030
C1877       C  0.82940255  0.59993897  0.07145092     0.03120
H1878       H  0.86928243  0.50617594  0.04281128     0.08230
H1879       H  0.80129146  0.62229880  0.07658429     0.07060
N1880       N  0.71399256  0.64353149  0.76904324    -0.27320
N1881       N  0.69648007  0.66417724  0.79735842    -0.35180
C1882       C  0.71603508  0.70622488  0.79961718     0.01020
C1883       C  0.74569249  0.71259464  0.77020919     0.07040
C1884       C  0.74588516  0.66989979  0.75440213    -0.06060
H1885       H  0.70268916  0.73320773  0.81611501     0.07710
H1886       H  0.75702573  0.66294239  0.72713788     0.08910
Cu1887     Cu  0.63701219  0.63663288  0.82193537     0.44170
Cu1888     Cu  0.67454076  0.61716558  0.72698773     0.41990
Cu1889     Cu  0.58824494  0.56417885  0.75049862     0.43880
N1890       N  0.58722903  0.58458686  0.83060914    -0.34710
N1891       N  0.58050129  0.55318321  0.80539158    -0.28960
C1892       C  0.55264082  0.52072238  0.81779138    -0.05060
C1893       C  0.53578018  0.53354401  0.85111897     0.07150
C1894       C  0.56031970  0.57357665  0.85915923     0.00950
H1895       H  0.54416930  0.49054310  0.80226302     0.08600
H1896       H  0.55841984  0.59307003  0.88379005     0.07680
N1897       N  0.58063933  0.60807537  0.70678228    -0.36160
N1898       N  0.61697209  0.62950394  0.69528609    -0.28340
C1899       C  0.60416350  0.66773404  0.67686462    -0.03580
C1900       C  0.55696916  0.66989141  0.67664858     0.05030
C1901       C  0.54380821  0.63238612  0.69718361     0.03120
H1902       H  0.62701391  0.69567307  0.67038823     0.08230
H1903       H  0.51168028  0.62888123  0.71053079     0.07060
N1904       N  0.93083347  0.95194808  0.79973138    -0.27340
N1905       N  0.91402904  0.92980352  0.82826147    -0.35180
C1906       C  0.93413339  0.94730162  0.85901683     0.01020
C1907       C  0.96498401  0.98180790  0.84907396     0.07040
C1908       C  0.95909622  0.98491563  0.81122959    -0.06060
H1909       H  0.92750831  0.93550815  0.88660614     0.07710
H1910       H  0.97346642  0.00960467  0.79248381     0.08910
Cu1911     Cu  0.86109337  0.88056214  0.82118101     0.44170
Cu1912     Cu  0.92269450  0.93578302  0.74524841     0.41990
Cu1913     Cu  0.82849992  0.88946083  0.72323909     0.43880
N1914       N  0.80267940  0.85099218  0.79504137    -0.34710
N1915       N  0.78616050  0.86991297  0.76449897    -0.28960
C1916       C  0.75485950  0.84253081  0.74944737    -0.05060
C1917       C  0.75481053  0.80049670  0.76751496     0.07150
C1918       C  0.78365583  0.80884575  0.79825593     0.00950
H1919       H  0.74455280  0.84860833  0.72137033     0.08600
H1920       H  0.79604697  0.78325642  0.81765825     0.07680
N1921       N  0.88382389  0.87064258  0.69357724    -0.36160
N1922       N  0.92193993  0.89221527  0.70178750    -0.28340
C1923       C  0.95697933  0.86680250  0.69196508    -0.03580
C1924       C  0.94062530  0.82648149  0.67755596     0.05030
C1925       C  0.89362152  0.83005073  0.67865244     0.03120
H1926       H  0.99111921  0.87169379  0.70247616     0.08230
H1927       H  0.86941324  0.80229474  0.67544033     0.07060
C1928       C  0.50019626  0.50723357  0.87365674    -0.02520
C1929       C  0.52952205  0.71155285  0.67421560    -0.06160
C1930       C  0.52590181  0.73642188  0.70651360    -0.17290
C1931       C  0.99452205  0.77138617  0.70905283     0.11040
C1932       C  0.96758417  0.78414217  0.67777602    -0.06080
C1933       C  0.97053759  0.75904678  0.89534226    -0.17320
C1934       C  0.50092231  0.72250669  0.89329293     0.11070
S1935       S  0.98881363  0.79624354  0.75384128    -0.32280
S1936       S  0.50061013  0.68996858  0.85155599    -0.32290
H1937       H  0.54632201  0.67667720  0.85465600     0.29080
H1938       H  0.94172382  0.80344947  0.74996925     0.29080
H1939       H  0.54613312  0.72681391  0.73071270     0.19670
H1940       H  0.94943863  0.76807404  0.87151395     0.19670
C1941       C  0.71395705  0.96022859  0.07379052    -0.06160
C1942       C  0.72265283  0.98820636  0.04307656    -0.17290
C1943       C  0.75873722  0.51908252  0.04302660     0.11040
C1944       C  0.78717662  0.52327814  0.07457080    -0.06080
C1945       C  0.77979188  0.49446654  0.10513036    -0.17320
C1946       C  0.74323430  0.96306315  0.10519413     0.11070
S1947       S  0.76799240  0.55091730  0.00114386    -0.32280
S1948       S  0.73605004  0.92756555  0.89569948    -0.32290
H1949       H  0.68891059  0.92089723  0.89130385     0.29080
H1950       H  0.81003048  0.53049388  0.99488894     0.29080
H1951       H  0.70140382  0.98554318  0.01837428     0.19670
H1952       H  0.80268018  0.49595650  0.87884909     0.19670
loop_ 
_geom_bond_atom_site_label_1 
_geom_bond_atom_site_label_2 
_geom_bond_distance 
_geom_bond_site_symmetry_2 
_ccdc_geom_bond_type 
C1           C53   1.551   1_556  S
C1           C87   1.553   1_556  S
C1          C381   1.558       .  S
C1          C405   1.551       .  S
N2            N3   1.319       .  A
N2            C6   1.333       .  A
N2          Cu10   2.047       .  S
N3            C4   1.353       .  A
N3           Cu9   2.124       .  S
C4            C5   1.403       .  A
C4            H7   1.074       .  S
C5          C586   1.545       .  S
C5            C6   1.382       .  A
C6            H8   1.077   1_455  S
Cu9          N12   2.123       .  S
Cu10         N20   2.043       .  S
Cu11         N13   2.050       .  S
Cu11         N19   2.061       .  S
N12          N13   1.318       .  A
N12          C16   1.357       .  A
N13          C14   1.326       .  A
C14          C15   1.388       .  A
C14          H17   1.071       .  S
C15         C123   1.559       .  S
C15          C16   1.407       .  A
C16          H18   1.082       .  S
N19          N20   1.311       .  A
N19          C23   1.352       .  A
N20          C21   1.336       .  A
C21          C22   1.380       .  A
C21          H24   1.076       .  S
C22          C23   1.392       .  A
C22         C111   1.480       .  S
C23          H25   1.081       .  S
N26          N27   1.319       .  A
N26          C30   1.332       .  A
N26         Cu34   2.044       .  S
N27          C28   1.358       .  A
N27         Cu33   2.134       .  S
C28          C29   1.405       .  A
C28          H31   1.076       .  S
C29        C1074   1.547       .  S
C29          C30   1.382       .  A
C30          H32   1.077       .  S
Cu33         N36   2.135       .  S
Cu34         N44   2.042       .  S
Cu35         N37   2.057       .  S
Cu35         N43   2.065       .  S
N36          N37   1.320       .  A
N36          C40   1.358       .  A
N37          C38   1.330       .  A
C38          C39   1.388       .  A
C38          H41   1.074       .  S
C39         C123   1.551       .  S
C39          C40   1.408       .  A
C40          H42   1.082       .  S
N43          N44   1.311       .  A
N43          C47   1.350       .  A
N44          C45   1.339       .  A
C45          C46   1.375       .  A
C45          H48   1.075       .  S
C46          C47   1.393       .  A
C46         C114   1.474       .  S
C47          H49   1.082       .  S
N50          N51   1.320       .  A
N50          C54   1.328       .  A
N50         Cu58   2.050   1_554  S
N51          C52   1.358       .  A
N51         Cu57   2.133       .  S
C52          C53   1.407       .  A
C52          H55   1.082       .  S
C53          C54   1.384       .  A
C54          H56   1.075   1_554  S
Cu57         N60   2.131       .  S
Cu58         N68   2.056       .  S
Cu59         N61   2.036       .  S
Cu59         N67   2.041   1_554  S
N60          N61   1.318       .  A
N60          C64   1.356       .  A
N61          C62   1.332       .  A
C62          C63   1.380       .  A
C62          H65   1.079   1_545  S
C63          C98   1.541       .  S
C63          C64   1.402       .  A
C64          H66   1.072       .  S
N67          N68   1.310       .  A
N67          C71   1.339       .  A
N68          C69   1.349       .  A
C69          C70   1.391       .  A
C69          H72   1.082       .  S
C70          C71   1.379       .  A
C70          C99   1.471       .  S
C71          H73   1.078       .  S
N74          N75   1.321       .  A
N74          C78   1.333       .  A
N74         Cu82   2.051   1_554  S
N75          C76   1.356       .  A
N75         Cu81   2.126       .  S
C76          C77   1.403       .  A
C76          H79   1.079       .  S
C77        C1562   1.543       .  S
C77          C78   1.384       .  A
C78          H80   1.078       .  S
Cu81         N84   2.125       .  S
Cu82         N92   2.045       .  S
Cu83         N85   2.048   1_556  S
Cu83         N91   2.060       .  S
N84          N85   1.318       .  A
N84          C88   1.356       .  A
N85          C86   1.328   1_554  A
C86          C87   1.388   1_556  A
C86          H89   1.071       .  S
C87          C88   1.408       .  A
C88          H90   1.082       .  S
N91          N92   1.312       .  A
N91          C95   1.351       .  A
N92          C93   1.337       .  A
C93          C94   1.377       .  A
C93          H96   1.074       .  S
C94          C95   1.390       .  A
C94         C102   1.480       .  S
C95          H97   1.082       .  S
C98         C493   1.545   1_545  S
C98        C1005   1.547   1_455  S
C98        C1541   1.543   1_445  S
C99         C100   1.398       .  A
C99         C470   1.414       .  A
C100       C1077   1.392   1_455  A
C100        H109   1.085       .  S
C101        C102   1.417       .  A
C101       C1076   1.392       .  A
C101        S105   1.806   1_556  S
C102        C469   1.404       .  A
C103        C224   1.404       .  A
C103       C1080   1.406       .  A
C103        H110   1.084       .  S
C104        C221   1.414       .  A
C104       C1079   1.406   1_455  A
C104        S106   1.803       .  S
S105        H108   1.407       .  S
S106        H107   1.405       .  S
C111        C112   1.404       .  A
C111        C116   1.415       .  A
C112        C601   1.388       .  A
C112        H121   1.084       .  S
C113        C114   1.408       .  A
C113        C600   1.388   1_545  A
C113        S117   1.801       .  S
C114        C115   1.407   1_545  A
C115        C604   1.409       .  A
C115        H244   1.084       .  S
C116        C603   1.409       .  A
C116        S240   1.805       .  S
S117        H120   1.405       .  S
S118        C482   1.805       .  S
S118        H119   1.404       .  S
H122        C481   1.084       .  S
C123        C175   1.551       .  S
C123        C209   1.553       .  S
N124        N125   1.319       .  A
N124        C128   1.333       .  A
N124       Cu132   2.047       .  S
N125        C126   1.353       .  A
N125       Cu131   2.124       .  S
C126        C127   1.403       .  A
C126        H129   1.074       .  S
C127        C708   1.545       .  S
C127        C128   1.382       .  A
C128        H130   1.077   1_455  S
Cu131       N134   2.123       .  S
Cu132       N142   2.043       .  S
Cu133       N135   2.050       .  S
Cu133       N141   2.061       .  S
N134        N135   1.318       .  A
N134        C138   1.357       .  A
N135        C136   1.326       .  A
C136        C137   1.388       .  A
C136        H139   1.071       .  S
C137        C245   1.559       .  S
C137        C138   1.407       .  A
C138        H140   1.082       .  S
N141        N142   1.311       .  A
N141        C145   1.352       .  A
N142        C143   1.336       .  A
C143        C144   1.380       .  A
C143        H146   1.076       .  S
C144        C145   1.392       .  A
C144        C233   1.481       .  S
C145        H147   1.081       .  S
N148        N149   1.319       .  A
N148        C152   1.332       .  A
N148       Cu156   2.044       .  S
N149        C150   1.358       .  A
N149       Cu155   2.134       .  S
C150        C151   1.405       .  A
C150        H153   1.076       .  S
C151       C1196   1.547       .  S
C151        C152   1.382       .  A
C152        H154   1.077       .  S
Cu155       N158   2.134       .  S
Cu156       N166   2.042       .  S
Cu157       N159   2.057       .  S
Cu157       N165   2.065       .  S
N158        N159   1.320       .  A
N158        C162   1.358       .  A
N159        C160   1.330       .  A
C160        C161   1.388       .  A
C160        H163   1.074       .  S
C161        C245   1.551       .  S
C161        C162   1.408       .  A
C162        H164   1.082       .  S
N165        N166   1.311       .  A
N165        C169   1.350       .  A
N166        C167   1.339       .  A
C167        C168   1.375       .  A
C167        H170   1.075       .  S
C168        C169   1.393       .  A
C168        C236   1.474       .  S
C169        H171   1.082       .  S
N172        N173   1.320       .  A
N172        C176   1.328       .  A
N172       Cu180   2.050       .  S
N173        C174   1.358       .  A
N173       Cu179   2.133       .  S
C174        C175   1.408       .  A
C174        H177   1.082       .  S
C175        C176   1.384       .  A
C176        H178   1.075       .  S
Cu179       N182   2.131       .  S
Cu180       N190   2.056       .  S
Cu181       N183   2.036       .  S
Cu181       N189   2.041       .  S
N182        N183   1.318       .  A
N182        C186   1.356       .  A
N183        C184   1.332       .  A
C184        C185   1.380       .  A
C184        H187   1.079   1_545  S
C185        C220   1.541       .  S
C185        C186   1.402       .  A
C186        H188   1.072       .  S
N189        N190   1.310       .  A
N189        C193   1.339       .  A
N190        C191   1.349       .  A
C191        C192   1.391       .  A
C191        H194   1.082       .  S
C192        C193   1.379       .  A
C192        C221   1.471       .  S
C193        H195   1.078       .  S
N196        N197   1.321       .  A
N196        C200   1.333       .  A
N196       Cu204   2.051       .  S
N197        C198   1.356       .  A
N197       Cu203   2.126       .  S
C198        C199   1.403       .  A
C198        H201   1.079       .  S
C199       C1684   1.543       .  S
C199        C200   1.384       .  A
C200        H202   1.078       .  S
Cu203       N206   2.125       .  S
Cu204       N214   2.045       .  S
Cu205       N207   2.048       .  S
Cu205       N213   2.060       .  S
N206        N207   1.318       .  A
N206        C210   1.356       .  A
N207        C208   1.328       .  A
C208        C209   1.388       .  A
C208        H211   1.070       .  S
C209        C210   1.408       .  A
C210        H212   1.082       .  S
N213        N214   1.312       .  A
N213        C217   1.351       .  A
N214        C215   1.337       .  A
C215        C216   1.377       .  A
C215        H218   1.074       .  S
C216        C217   1.390       .  A
C216        C224   1.480       .  S
C217        H219   1.082       .  S
C220        C615   1.545   1_545  S
C220       C1127   1.547   1_455  S
C220       C1663   1.543   1_445  S
C221        C222   1.398       .  A
C222       C1199   1.392   1_455  A
C222        H231   1.085       .  S
C223       C1198   1.392       .  A
C223        C224   1.417       .  A
C223        S227   1.806       .  S
C225        C346   1.404       .  A
C225       C1202   1.406       .  A
C225        H232   1.084       .  S
C226        C343   1.414       .  A
C226       C1201   1.406   1_455  A
C226        S228   1.803       .  S
S227        H230   1.407       .  S
S228        H229   1.405       .  S
C233        C234   1.404       .  A
C233        C238   1.415       .  A
C234        C723   1.388       .  A
C234        H243   1.084       .  S
C235        C722   1.388   1_545  A
C235        C236   1.408       .  A
C235        S239   1.801       .  S
C236        C237   1.407   1_545  A
C237        C726   1.409       .  A
C237        H366   1.084       .  S
C238        C725   1.409       .  A
C238        S362   1.805       .  S
S239        H242   1.405       .  S
S240        H241   1.404       .  S
C245        C297   1.551       .  S
C245        C331   1.553       .  S
N246        N247   1.319       .  A
N246        C250   1.333       .  A
N246       Cu254   2.047       .  S
N247        C248   1.353       .  A
N247       Cu253   2.124       .  S
C248        C249   1.403       .  A
C248        H251   1.074       .  S
C249        C830   1.545       .  S
C249        C250   1.382       .  A
C250        H252   1.077   1_455  S
Cu253       N256   2.123       .  S
Cu254       N264   2.043       .  S
Cu255       N257   2.049       .  S
Cu255       N263   2.061       .  S
N256        N257   1.318       .  A
N256        C260   1.357       .  A
N257        C258   1.326       .  A
C258        C259   1.388       .  A
C258        H261   1.071       .  S
C259        C367   1.559       .  S
C259        C260   1.407       .  A
C260        H262   1.082       .  S
N263        N264   1.311       .  A
N263        C267   1.352       .  A
N264        C265   1.336       .  A
C265        C266   1.380       .  A
C265        H268   1.076       .  S
C266        C267   1.392       .  A
C266        C355   1.481       .  S
C267        H269   1.081       .  S
N270        N271   1.319       .  A
N270        C274   1.332       .  A
N270       Cu278   2.044       .  S
N271        C272   1.358       .  A
N271       Cu277   2.134       .  S
C272        C273   1.405       .  A
C272        H275   1.076       .  S
C273       C1318   1.547       .  S
C273        C274   1.382       .  A
C274        H276   1.077       .  S
Cu277       N280   2.134       .  S
Cu278       N288   2.042       .  S
Cu279       N281   2.057       .  S
Cu279       N287   2.065       .  S
N280        N281   1.320       .  A
N280        C284   1.358       .  A
N281        C282   1.330       .  A
C282        C283   1.388       .  A
C282        H285   1.074       .  S
C283        C367   1.551       .  S
C283        C284   1.408       .  A
C284        H286   1.082       .  S
N287        N288   1.311       .  A
N287        C291   1.350       .  A
N288        C289   1.339       .  A
C289        C290   1.375       .  A
C289        H292   1.075       .  S
C290        C291   1.393       .  A
C290        C358   1.474       .  S
C291        H293   1.082       .  S
N294        N295   1.320       .  A
N294        C298   1.328       .  A
N294       Cu302   2.050       .  S
N295        C296   1.358       .  A
N295       Cu301   2.133       .  S
C296        C297   1.408       .  A
C296        H299   1.082       .  S
C297        C298   1.384       .  A
C298        H300   1.075       .  S
Cu301       N304   2.131       .  S
Cu302       N312   2.056       .  S
Cu303       N305   2.036       .  S
Cu303       N311   2.041       .  S
N304        N305   1.318       .  A
N304        C308   1.356       .  A
N305        C306   1.332       .  A
C306        C307   1.380       .  A
C306        H309   1.079   1_545  S
C307        C342   1.541       .  S
C307        C308   1.402       .  A
C308        H310   1.072       .  S
N311        N312   1.310       .  A
N311        C315   1.339       .  A
N312        C313   1.349       .  A
C313        C314   1.391       .  A
C313        H316   1.082       .  S
C314        C315   1.379       .  A
C314        C343   1.471       .  S
C315        H317   1.078       .  S
N318        N319   1.321       .  A
N318        C322   1.333       .  A
N318       Cu326   2.051       .  S
N319        C320   1.356       .  A
N319       Cu325   2.126       .  S
C320        C321   1.403       .  A
C320        H323   1.079       .  S
C321       C1806   1.543       .  S
C321        C322   1.384       .  A
C322        H324   1.078       .  S
Cu325       N328   2.125       .  S
Cu326       N336   2.045       .  S
Cu327       N329   2.048       .  S
Cu327       N335   2.060       .  S
N328        N329   1.318       .  A
N328        C332   1.356       .  A
N329        C330   1.328       .  A
C330        C331   1.388       .  A
C330        H333   1.070       .  S
C331        C332   1.408       .  A
C332        H334   1.082       .  S
N335        N336   1.312       .  A
N335        C339   1.351       .  A
N336        C337   1.337       .  A
C337        C338   1.377       .  A
C337        H340   1.074       .  S
C338        C339   1.390       .  A
C338        C346   1.479       .  S
C339        H341   1.082       .  S
C342        C737   1.545   1_545  S
C342       C1249   1.547   1_455  S
C342       C1785   1.543   1_445  S
C343        C344   1.398       .  A
C344       C1321   1.392   1_455  A
C344        H353   1.085       .  S
C345       C1320   1.392       .  A
C345        C346   1.417       .  A
C345        S349   1.806       .  S
C347        C468   1.404       .  A
C347       C1324   1.406       .  A
C347        H354   1.084       .  S
C348        C465   1.414       .  A
C348       C1323   1.406   1_455  A
C348        S350   1.803       .  S
S349        H352   1.407       .  S
S350        H351   1.405       .  S
C355        C356   1.404       .  A
C355        C360   1.415       .  A
C356        C845   1.388       .  A
C356        H365   1.084       .  S
C357        C844   1.388   1_545  A
C357        C358   1.408       .  A
C357        S361   1.801       .  S
C358        C359   1.407   1_545  A
C359        C848   1.409       .  A
C359        H488   1.084       .  S
C360        C847   1.409       .  A
C360        S484   1.805       .  S
S361        H364   1.405       .  S
S362        H363   1.404       .  S
C367        C419   1.551       .  S
C367        C453   1.553       .  S
N368        N369   1.319       .  A
N368        C372   1.333       .  A
N368       Cu376   2.047       .  S
N369        C370   1.353       .  A
N369       Cu375   2.124       .  S
C370        C371   1.403       .  A
C370        H373   1.074       .  S
C371        C952   1.545       .  S
C371        C372   1.382       .  A
C372        H374   1.077   1_455  S
Cu375       N378   2.123       .  S
Cu376       N386   2.043   1_556  S
Cu377       N379   2.049   1_554  S
Cu377       N385   2.061       .  S
N378        N379   1.318       .  A
N378        C382   1.357       .  A
N379        C380   1.326       .  A
C380        C381   1.388       .  A
C380        H383   1.071   1_556  S
C381        C382   1.407       .  A
C382        H384   1.082       .  S
N385        N386   1.311       .  A
N385        C389   1.352       .  A
N386        C387   1.336       .  A
C387        C388   1.380       .  A
C387        H390   1.076       .  S
C388        C389   1.392       .  A
C388        C477   1.480       .  S
C389        H391   1.081       .  S
N392        N393   1.319       .  A
N392        C396   1.332       .  A
N392       Cu400   2.044       .  S
N393        C394   1.358       .  A
N393       Cu399   2.134       .  S
C394        C395   1.405       .  A
C394        H397   1.076       .  S
C395       C1440   1.547       .  S
C395        C396   1.382       .  A
C396        H398   1.077       .  S
Cu399       N402   2.134       .  S
Cu400       N410   2.042   1_556  S
Cu401       N403   2.057   1_554  S
Cu401       N409   2.065       .  S
N402        N403   1.320       .  A
N402        C406   1.358       .  A
N403        C404   1.330       .  A
C404        C405   1.388       .  A
C404        H407   1.074   1_556  S
C405        C406   1.408       .  A
C406        H408   1.082       .  S
N409        N410   1.311       .  A
N409        C413   1.350       .  A
N410        C411   1.339       .  A
C411        C412   1.375       .  A
C411        H414   1.075       .  S
C412        C413   1.393       .  A
C412        C480   1.474       .  S
C413        H415   1.082       .  S
N416        N417   1.320       .  A
N416        C420   1.328       .  A
N416       Cu424   2.050       .  S
N417        C418   1.358       .  A
N417       Cu423   2.133       .  S
C418        C419   1.408       .  A
C418        H421   1.082       .  S
C419        C420   1.384       .  A
C420        H422   1.075       .  S
Cu423       N426   2.131       .  S
Cu424       N434   2.056       .  S
Cu425       N427   2.036       .  S
Cu425       N433   2.041       .  S
N426        N427   1.318       .  A
N426        C430   1.356       .  A
N427        C428   1.332       .  A
C428        C429   1.380       .  A
C428        H431   1.079   1_545  S
C429        C464   1.541       .  S
C429        C430   1.402       .  A
C430        H432   1.072       .  S
N433        N434   1.310       .  A
N433        C437   1.339       .  A
N434        C435   1.349       .  A
C435        C436   1.391       .  A
C435        H438   1.082       .  S
C436        C437   1.379       .  A
C436        C465   1.471       .  S
C437        H439   1.078       .  S
N440        N441   1.321       .  A
N440        C444   1.333       .  A
N440       Cu448   2.051       .  S
N441        C442   1.356       .  A
N441       Cu447   2.126       .  S
C442        C443   1.403       .  A
C442        H445   1.079       .  S
C443       C1928   1.543       .  S
C443        C444   1.384       .  A
C444        H446   1.078       .  S
Cu447       N450   2.125       .  S
Cu448       N458   2.045       .  S
Cu449       N451   2.048       .  S
Cu449       N457   2.061       .  S
N450        N451   1.318       .  A
N450        C454   1.356       .  A
N451        C452   1.328       .  A
C452        C453   1.388       .  A
C452        H455   1.070       .  S
C453        C454   1.408       .  A
C454        H456   1.082       .  S
N457        N458   1.312       .  A
N457        C461   1.351       .  A
N458        C459   1.337       .  A
C459        C460   1.377       .  A
C459        H462   1.074       .  S
C460        C461   1.390       .  A
C460        C468   1.479       .  S
C461        H463   1.082       .  S
C464        C859   1.545   1_545  S
C464       C1371   1.547   1_455  S
C464       C1907   1.543   1_445  S
C465        C466   1.398       .  A
C466       C1443   1.392   1_455  A
C466        H475   1.085       .  S
C467       C1442   1.392       .  A
C467        C468   1.417       .  A
C467        S471   1.806       .  S
C469       C1446   1.406       .  A
C469        H476   1.084       .  S
C470       C1445   1.406   1_455  A
C470        S472   1.803       .  S
S471        H474   1.407       .  S
S472        H473   1.405       .  S
C477        C478   1.404       .  A
C477        C482   1.415       .  A
C478        C967   1.388       .  A
C478        H487   1.084       .  S
C479        C966   1.388   1_545  A
C479        C480   1.408       .  A
C479        S483   1.801       .  S
C480        C481   1.407   1_545  A
C481        C970   1.409       .  A
C482        C969   1.409       .  A
S483        H486   1.405   1_554  S
S484        H485   1.404       .  S
C489        C869   1.558       .  S
C489        C893   1.551       .  S
C489        C541   1.551   1_556  S
C489        C575   1.553   1_556  S
N490        N491   1.319       .  A
N490        C494   1.333       .  A
N490       Cu498   2.047       .  S
N491        C492   1.353       .  A
N491       Cu497   2.124       .  S
C492        C493   1.403       .  A
C492        H495   1.074       .  S
C493        C494   1.382       .  A
C494        H496   1.077   1_455  S
Cu497       N500   2.123       .  S
Cu498       N508   2.043       .  S
Cu499       N501   2.050       .  S
Cu499       N507   2.061       .  S
N500        N501   1.318       .  A
N500        C504   1.357       .  A
N501        C502   1.326       .  A
C502        C503   1.388       .  A
C502        H505   1.071       .  S
C503        C611   1.559       .  S
C503        C504   1.407       .  A
C504        H506   1.082       .  S
N507        N508   1.311       .  A
N507        C511   1.352       .  A
N508        C509   1.336       .  A
C509        C510   1.380       .  A
C509        H512   1.076       .  S
C510        C511   1.392       .  A
C510        C599   1.480       .  S
C511        H513   1.081       .  S
N514        N515   1.319       .  A
N514        C518   1.332       .  A
N514       Cu522   2.044       .  S
N515        C516   1.358       .  A
N515       Cu521   2.134       .  S
C516        C517   1.405       .  A
C516        H519   1.076       .  S
C517       C1562   1.547       .  S
C517        C518   1.382       .  A
C518        H520   1.077       .  S
Cu521       N524   2.135       .  S
Cu522       N532   2.042       .  S
Cu523       N525   2.057       .  S
Cu523       N531   2.065       .  S
N524        N525   1.320       .  A
N524        C528   1.358       .  A
N525        C526   1.330       .  A
C526        C527   1.388       .  A
C526        H529   1.074       .  S
C527        C611   1.551       .  S
C527        C528   1.408       .  A
C528        H530   1.082       .  S
N531        N532   1.311       .  A
N531        C535   1.350       .  A
N532        C533   1.339       .  A
C533        C534   1.375       .  A
C533        H536   1.075       .  S
C534        C535   1.393       .  A
C534        C602   1.474       .  S
C535        H537   1.082       .  S
N538        N539   1.320       .  A
N538        C542   1.328       .  A
N538       Cu546   2.050   1_554  S
N539        C540   1.358       .  A
N539       Cu545   2.133       .  S
C540        C541   1.407       .  A
C540        H543   1.082       .  S
C541        C542   1.384       .  A
C542        H544   1.075   1_554  S
Cu545       N548   2.131       .  S
Cu546       N556   2.056       .  S
Cu547       N549   2.036       .  S
Cu547       N555   2.041   1_554  S
N548        N549   1.318       .  A
N548        C552   1.356       .  A
N549        C550   1.332       .  A
C550        C551   1.380       .  A
C550        H553   1.079       .  S
C551        C586   1.541       .  S
C551        C552   1.402       .  A
C552        H554   1.072       .  S
N555        N556   1.310       .  A
N555        C559   1.339       .  A
N556        C557   1.349       .  A
C557        C558   1.391       .  A
C557        H560   1.082       .  S
C558        C559   1.379       .  A
C558        C587   1.471       .  S
C559        H561   1.078       .  S
N562        N563   1.321       .  A
N562        C566   1.333       .  A
N562       Cu570   2.051   1_554  S
N563        C564   1.356       .  A
N563       Cu569   2.126       .  S
C564        C565   1.403       .  A
C564        H567   1.079       .  S
C565       C1074   1.543   1_565  S
C565        C566   1.384       .  A
C566        H568   1.078   1_565  S
Cu569       N572   2.125       .  S
Cu570       N580   2.045       .  S
Cu571       N573   2.048   1_556  S
Cu571       N579   2.060       .  S
N572        N573   1.318       .  A
N572        C576   1.356       .  A
N573        C574   1.328   1_554  A
C574        C575   1.388   1_556  A
C574        H577   1.071       .  S
C575        C576   1.408       .  A
C576        H578   1.082       .  S
N579        N580   1.312       .  A
N579        C583   1.351       .  A
N580        C581   1.337       .  A
C581        C582   1.377       .  A
C581        H584   1.074       .  S
C582        C583   1.390       .  A
C582        C590   1.480       .  S
C583        H585   1.082       .  S
C586       C1493   1.547   1_455  S
C586       C1053   1.543   1_455  S
C587        C588   1.398       .  A
C587        C958   1.414       .  A
C588       C1565   1.392   1_455  A
C588        H597   1.085       .  S
C589       C1564   1.392       .  A
C589        C590   1.417       .  A
C589        S593   1.806   1_556  S
C590        C957   1.404       .  A
C591        C712   1.404       .  A
C591       C1568   1.406       .  A
C591        H598   1.084       .  S
C592        C709   1.414       .  A
C592       C1567   1.406   1_455  A
C592        S594   1.803       .  S
S593        H596   1.407       .  S
S594        H595   1.405       .  S
C599        C600   1.404       .  A
C599        C604   1.415       .  A
C600        H609   1.084       .  S
C601        C602   1.408       .  A
C601        S605   1.801       .  S
C602        C603   1.407       .  A
C603        H732   1.084       .  S
C604        S728   1.805       .  S
S605        H608   1.405       .  S
S606        C970   1.805       .  S
S606        H607   1.404       .  S
H610        C969   1.084       .  S
C611        C663   1.551       .  S
C611        C697   1.553       .  S
N612        N613   1.319       .  A
N612        C616   1.333       .  A
N612       Cu620   2.047       .  S
N613        C614   1.353       .  A
N613       Cu619   2.124       .  S
C614        C615   1.403       .  A
C614        H617   1.074       .  S
C615        C616   1.382       .  A
C616        H618   1.077   1_455  S
Cu619       N622   2.123       .  S
Cu620       N630   2.043       .  S
Cu621       N623   2.050       .  S
Cu621       N629   2.061       .  S
N622        N623   1.318       .  A
N622        C626   1.357       .  A
N623        C624   1.326       .  A
C624        C625   1.388       .  A
C624        H627   1.071       .  S
C625        C733   1.559       .  S
C625        C626   1.407       .  A
C626        H628   1.082       .  S
N629        N630   1.311       .  A
N629        C633   1.352       .  A
N630        C631   1.336       .  A
C631        C632   1.380       .  A
C631        H634   1.076       .  S
C632        C633   1.392       .  A
C632        C721   1.481       .  S
C633        H635   1.081       .  S
N636        N637   1.319       .  A
N636        C640   1.332       .  A
N636       Cu644   2.044       .  S
N637        C638   1.358       .  A
N637       Cu643   2.134       .  S
C638        C639   1.405       .  A
C638        H641   1.076       .  S
C639       C1684   1.547       .  S
C639        C640   1.382       .  A
C640        H642   1.077       .  S
Cu643       N646   2.134       .  S
Cu644       N654   2.042       .  S
Cu645       N647   2.057       .  S
Cu645       N653   2.065       .  S
N646        N647   1.320       .  A
N646        C650   1.358       .  A
N647        C648   1.330       .  A
C648        C649   1.388       .  A
C648        H651   1.074       .  S
C649        C733   1.551       .  S
C649        C650   1.408       .  A
C650        H652   1.082       .  S
N653        N654   1.311       .  A
N653        C657   1.350       .  A
N654        C655   1.339       .  A
C655        C656   1.375       .  A
C655        H658   1.075       .  S
C656        C657   1.393       .  A
C656        C724   1.474       .  S
C657        H659   1.082       .  S
N660        N661   1.320       .  A
N660        C664   1.328       .  A
N660       Cu668   2.050       .  S
N661        C662   1.358       .  A
N661       Cu667   2.133       .  S
C662        C663   1.408       .  A
C662        H665   1.082       .  S
C663        C664   1.384       .  A
C664        H666   1.075       .  S
Cu667       N670   2.131       .  S
Cu668       N678   2.056       .  S
Cu669       N671   2.036       .  S
Cu669       N677   2.041       .  S
N670        N671   1.318       .  A
N670        C674   1.356       .  A
N671        C672   1.332       .  A
C672        C673   1.380       .  A
C672        H675   1.079       .  S
C673        C708   1.541       .  S
C673        C674   1.402       .  A
C674        H676   1.072       .  S
N677        N678   1.310       .  A
N677        C681   1.339       .  A
N678        C679   1.349       .  A
C679        C680   1.391       .  A
C679        H682   1.082       .  S
C680        C681   1.379       .  A
C680        C709   1.471       .  S
C681        H683   1.078       .  S
N684        N685   1.321       .  A
N684        C688   1.333       .  A
N684       Cu692   2.051       .  S
N685        C686   1.356       .  A
N685       Cu691   2.126       .  S
C686        C687   1.403       .  A
C686        H689   1.079       .  S
C687       C1196   1.543   1_565  S
C687        C688   1.384       .  A
C688        H690   1.078   1_565  S
Cu691       N694   2.125       .  S
Cu692       N702   2.045       .  S
Cu693       N695   2.048       .  S
Cu693       N701   2.060       .  S
N694        N695   1.318       .  A
N694        C698   1.356       .  A
N695        C696   1.328       .  A
C696        C697   1.388       .  A
C696        H699   1.070       .  S
C697        C698   1.408       .  A
C698        H700   1.082       .  S
N701        N702   1.312       .  A
N701        C705   1.351       .  A
N702        C703   1.337       .  A
C703        C704   1.377       .  A
C703        H706   1.074       .  S
C704        C705   1.390       .  A
C704        C712   1.480       .  S
C705        H707   1.082       .  S
C708       C1615   1.547   1_455  S
C708       C1175   1.543   1_455  S
C709        C710   1.398       .  A
C710       C1687   1.392   1_455  A
C710        H719   1.085       .  S
C711       C1686   1.392       .  A
C711        C712   1.417       .  A
C711        S715   1.806       .  S
C713        C834   1.404       .  A
C713       C1690   1.406       .  A
C713        H720   1.084       .  S
C714        C831   1.414       .  A
C714       C1689   1.406   1_455  A
C714        S716   1.803       .  S
S715        H718   1.407       .  S
S716        H717   1.405       .  S
C721        C722   1.404       .  A
C721        C726   1.415       .  A
C722        H731   1.084       .  S
C723        C724   1.408       .  A
C723        S727   1.801       .  S
C724        C725   1.407       .  A
C725        H854   1.084       .  S
C726        S850   1.805       .  S
S727        H730   1.405       .  S
S728        H729   1.404       .  S
C733        C785   1.551       .  S
C733        C819   1.553       .  S
N734        N735   1.319       .  A
N734        C738   1.333       .  A
N734       Cu742   2.047       .  S
N735        C736   1.353       .  A
N735       Cu741   2.124       .  S
C736        C737   1.403       .  A
C736        H739   1.074       .  S
C737        C738   1.382       .  A
C738        H740   1.077   1_455  S
Cu741       N744   2.123       .  S
Cu742       N752   2.043       .  S
Cu743       N745   2.049       .  S
Cu743       N751   2.061       .  S
N744        N745   1.318       .  A
N744        C748   1.357       .  A
N745        C746   1.326       .  A
C746        C747   1.388       .  A
C746        H749   1.071       .  S
C747        C855   1.559       .  S
C747        C748   1.407       .  A
C748        H750   1.082       .  S
N751        N752   1.311       .  A
N751        C755   1.352       .  A
N752        C753   1.336       .  A
C753        C754   1.380       .  A
C753        H756   1.076       .  S
C754        C755   1.392       .  A
C754        C843   1.481       .  S
C755        H757   1.081       .  S
N758        N759   1.319       .  A
N758        C762   1.332       .  A
N758       Cu766   2.044       .  S
N759        C760   1.358       .  A
N759       Cu765   2.134       .  S
C760        C761   1.405       .  A
C760        H763   1.076       .  S
C761       C1806   1.547       .  S
C761        C762   1.382       .  A
C762        H764   1.077       .  S
Cu765       N768   2.134       .  S
Cu766       N776   2.042       .  S
Cu767       N769   2.057       .  S
Cu767       N775   2.065       .  S
N768        N769   1.320       .  A
N768        C772   1.358       .  A
N769        C770   1.330       .  A
C770        C771   1.388       .  A
C770        H773   1.074       .  S
C771        C855   1.551       .  S
C771        C772   1.408       .  A
C772        H774   1.082       .  S
N775        N776   1.311       .  A
N775        C779   1.350       .  A
N776        C777   1.339       .  A
C777        C778   1.375       .  A
C777        H780   1.075       .  S
C778        C779   1.393       .  A
C778        C846   1.474       .  S
C779        H781   1.082       .  S
N782        N783   1.320       .  A
N782        C786   1.328       .  A
N782       Cu790   2.050       .  S
N783        C784   1.358       .  A
N783       Cu789   2.133       .  S
C784        C785   1.408       .  A
C784        H787   1.082       .  S
C785        C786   1.384       .  A
C786        H788   1.075       .  S
Cu789       N792   2.131       .  S
Cu790       N800   2.056       .  S
Cu791       N793   2.036       .  S
Cu791       N799   2.041       .  S
N792        N793   1.318       .  A
N792        C796   1.356       .  A
N793        C794   1.332       .  A
C794        C795   1.380       .  A
C794        H797   1.079       .  S
C795        C830   1.541       .  S
C795        C796   1.402       .  A
C796        H798   1.072       .  S
N799        N800   1.310       .  A
N799        C803   1.339       .  A
N800        C801   1.349       .  A
C801        C802   1.391       .  A
C801        H804   1.082       .  S
C802        C803   1.379       .  A
C802        C831   1.471       .  S
C803        H805   1.078       .  S
N806        N807   1.321       .  A
N806        C810   1.333       .  A
N806       Cu814   2.051       .  S
N807        C808   1.356       .  A
N807       Cu813   2.126       .  S
C808        C809   1.403       .  A
C808        H811   1.079       .  S
C809       C1318   1.543   1_565  S
C809        C810   1.384       .  A
C810        H812   1.078   1_565  S
Cu813       N816   2.125       .  S
Cu814       N824   2.045       .  S
Cu815       N817   2.048       .  S
Cu815       N823   2.060       .  S
N816        N817   1.318       .  A
N816        C820   1.356       .  A
N817        C818   1.328       .  A
C818        C819   1.388       .  A
C818        H821   1.070       .  S
C819        C820   1.408       .  A
C820        H822   1.082       .  S
N823        N824   1.312       .  A
N823        C827   1.351       .  A
N824        C825   1.337       .  A
C825        C826   1.377       .  A
C825        H828   1.074       .  S
C826        C827   1.390       .  A
C826        C834   1.479       .  S
C827        H829   1.082       .  S
C830       C1737   1.547   1_455  S
C830       C1297   1.543   1_455  S
C831        C832   1.398       .  A
C832       C1809   1.392   1_455  A
C832        H841   1.085       .  S
C833       C1808   1.392       .  A
C833        C834   1.417       .  A
C833        S837   1.806       .  S
C835        C956   1.404       .  A
C835       C1812   1.406       .  A
C835        H842   1.084       .  S
C836        C953   1.414       .  A
C836       C1811   1.406   1_455  A
C836        S838   1.803       .  S
S837        H840   1.407       .  S
S838        H839   1.405       .  S
C843        C844   1.404       .  A
C843        C848   1.415       .  A
C844        H853   1.084       .  S
C845        C846   1.408       .  A
C845        S849   1.801       .  S
C846        C847   1.407       .  A
C847        H976   1.084       .  S
C848        S972   1.805       .  S
S849        H852   1.405       .  S
S850        H851   1.404       .  S
C855        C907   1.551       .  S
C855        C941   1.553       .  S
N856        N857   1.319       .  A
N856        C860   1.333       .  A
N856       Cu864   2.047       .  S
N857        C858   1.353       .  A
N857       Cu863   2.124       .  S
C858        C859   1.403       .  A
C858        H861   1.074       .  S
C859        C860   1.382       .  A
C860        H862   1.077   1_455  S
Cu863       N866   2.123       .  S
Cu864       N874   2.043   1_556  S
Cu865       N867   2.049   1_554  S
Cu865       N873   2.061       .  S
N866        N867   1.318       .  A
N866        C870   1.357       .  A
N867        C868   1.326       .  A
C868        C869   1.388       .  A
C868        H871   1.071   1_556  S
C869        C870   1.407       .  A
C870        H872   1.082       .  S
N873        N874   1.311       .  A
N873        C877   1.352       .  A
N874        C875   1.336       .  A
C875        C876   1.380       .  A
C875        H878   1.076       .  S
C876        C877   1.392       .  A
C876        C965   1.480       .  S
C877        H879   1.081       .  S
N880        N881   1.319       .  A
N880        C884   1.332       .  A
N880       Cu888   2.044       .  S
N881        C882   1.358       .  A
N881       Cu887   2.134       .  S
C882        C883   1.405       .  A
C882        H885   1.076       .  S
C883       C1928   1.547       .  S
C883        C884   1.382       .  A
C884        H886   1.077       .  S
Cu887       N890   2.134       .  S
Cu888       N898   2.042   1_556  S
Cu889       N891   2.057   1_554  S
Cu889       N897   2.065       .  S
N890        N891   1.320       .  A
N890        C894   1.358       .  A
N891        C892   1.330       .  A
C892        C893   1.388       .  A
C892        H895   1.074   1_556  S
C893        C894   1.408       .  A
C894        H896   1.082       .  S
N897        N898   1.311       .  A
N897        C901   1.350       .  A
N898        C899   1.339       .  A
C899        C900   1.375       .  A
C899        H902   1.075       .  S
C900        C901   1.393       .  A
C900        C968   1.474       .  S
C901        H903   1.082       .  S
N904        N905   1.320       .  A
N904        C908   1.328       .  A
N904       Cu912   2.050       .  S
N905        C906   1.358       .  A
N905       Cu911   2.133       .  S
C906        C907   1.408       .  A
C906        H909   1.082       .  S
C907        C908   1.384       .  A
C908        H910   1.075       .  S
Cu911       N914   2.131       .  S
Cu912       N922   2.056       .  S
Cu913       N915   2.036       .  S
Cu913       N921   2.041       .  S
N914        N915   1.318       .  A
N914        C918   1.356       .  A
N915        C916   1.332       .  A
C916        C917   1.380       .  A
C916        H919   1.079       .  S
C917        C952   1.541       .  S
C917        C918   1.402       .  A
C918        H920   1.072       .  S
N921        N922   1.310       .  A
N921        C925   1.339       .  A
N922        C923   1.349       .  A
C923        C924   1.391       .  A
C923        H926   1.082       .  S
C924        C925   1.379       .  A
C924        C953   1.471       .  S
C925        H927   1.078       .  S
N928        N929   1.321       .  A
N928        C932   1.333       .  A
N928       Cu936   2.051       .  S
N929        C930   1.356       .  A
N929       Cu935   2.126       .  S
C930        C931   1.403       .  A
C930        H933   1.079       .  S
C931       C1440   1.543   1_565  S
C931        C932   1.384       .  A
C932        H934   1.078   1_565  S
Cu935       N938   2.125       .  S
Cu936       N946   2.045       .  S
Cu937       N939   2.048       .  S
Cu937       N945   2.061       .  S
N938        N939   1.318       .  A
N938        C942   1.356       .  A
N939        C940   1.328       .  A
C940        C941   1.388       .  A
C940        H943   1.070       .  S
C941        C942   1.408       .  A
C942        H944   1.082       .  S
N945        N946   1.312       .  A
N945        C949   1.351       .  A
N946        C947   1.337       .  A
C947        C948   1.377       .  A
C947        H950   1.074       .  S
C948        C949   1.390       .  A
C948        C956   1.479       .  S
C949        H951   1.082       .  S
C952       C1859   1.547   1_455  S
C952       C1419   1.543   1_455  S
C953        C954   1.398       .  A
C954       C1931   1.392   1_455  A
C954        H963   1.085       .  S
C955       C1930   1.392       .  A
C955        C956   1.417       .  A
C955        S959   1.806       .  S
C957       C1934   1.406       .  A
C957        H964   1.084       .  S
C958       C1933   1.406   1_455  A
C958        S960   1.803       .  S
S959        H962   1.407       .  S
S960        H961   1.405       .  S
C965        C966   1.404       .  A
C965        C970   1.415       .  A
C966        H975   1.084       .  S
C967        C968   1.408       .  A
C967        S971   1.801       .  S
C968        C969   1.407       .  A
S971        H974   1.405   1_554  S
S972        H973   1.404       .  S
C977       C1357   1.558       .  S
C977       C1381   1.551       .  S
C977       C1029   1.551   1_556  S
C977       C1063   1.553   1_556  S
N978        N979   1.319       .  A
N978        C982   1.333       .  A
N978       Cu986   2.047       .  S
N979        C980   1.353       .  A
N979       Cu985   2.124       .  S
C980        C981   1.403       .  A
C980        H983   1.074       .  S
C981       C1562   1.545       .  S
C981        C982   1.382       .  A
C982        H984   1.077       .  S
Cu985       N988   2.123       .  S
Cu986       N996   2.043       .  S
Cu987       N989   2.050       .  S
Cu987       N995   2.061       .  S
N988        N989   1.318       .  A
N988        C992   1.357       .  A
N989        C990   1.326       .  A
C990        C991   1.388       .  A
C990        H993   1.071       .  S
C991       C1099   1.559       .  S
C991        C992   1.407       .  A
C992        H994   1.082       .  S
N995        N996   1.311       .  A
N995        C999   1.352       .  A
N996        C997   1.336       .  A
C997        C998   1.380       .  A
C997       H1000   1.076       .  S
C998        C999   1.392       .  A
C998       C1087   1.480       .  S
C999       H1001   1.081       .  S
N1002      N1003   1.319       .  A
N1002      C1006   1.332       .  A
N1002     Cu1010   2.044       .  S
N1003      C1004   1.358       .  A
N1003     Cu1009   2.134       .  S
C1004      C1005   1.405       .  A
C1004      H1007   1.076       .  S
C1005      C1006   1.382       .  A
C1006      H1008   1.077   1_655  S
Cu1009     N1012   2.135       .  S
Cu1010     N1020   2.042       .  S
Cu1011     N1013   2.057       .  S
Cu1011     N1019   2.065       .  S
N1012      N1013   1.320       .  A
N1012      C1016   1.358       .  A
N1013      C1014   1.330       .  A
C1014      C1015   1.388       .  A
C1014      H1017   1.074       .  S
C1015      C1099   1.551       .  S
C1015      C1016   1.408       .  A
C1016      H1018   1.082       .  S
N1019      N1020   1.311       .  A
N1019      C1023   1.350       .  A
N1020      C1021   1.339       .  A
C1021      C1022   1.375       .  A
C1021      H1024   1.075       .  S
C1022      C1023   1.393       .  A
C1022      C1090   1.474       .  S
C1023      H1025   1.082       .  S
N1026      N1027   1.320       .  A
N1026      C1030   1.328       .  A
N1026     Cu1034   2.050   1_554  S
N1027      C1028   1.358       .  A
N1027     Cu1033   2.133       .  S
C1028      C1029   1.407       .  A
C1028      H1031   1.082       .  S
C1029      C1030   1.384       .  A
C1030      H1032   1.075   1_554  S
Cu1033     N1036   2.131       .  S
Cu1034     N1044   2.056       .  S
Cu1035     N1037   2.036       .  S
Cu1035     N1043   2.041   1_554  S
N1036      N1037   1.318       .  A
N1036      C1040   1.356       .  A
N1037      C1038   1.332       .  A
C1038      C1039   1.380       .  A
C1038      H1041   1.079   1_545  S
C1039      C1074   1.541       .  S
C1039      C1040   1.402       .  A
C1040      H1042   1.072       .  S
N1043      N1044   1.310       .  A
N1043      C1047   1.339       .  A
N1044      C1045   1.349       .  A
C1045      C1046   1.391       .  A
C1045      H1048   1.082       .  S
C1046      C1047   1.379       .  A
C1046      C1075   1.471       .  S
C1047      H1049   1.078       .  S
N1050      N1051   1.321       .  A
N1050      C1054   1.333       .  A
N1050     Cu1058   2.051   1_554  S
N1051      C1052   1.356       .  A
N1051     Cu1057   2.126       .  S
C1052      C1053   1.403       .  A
C1052      H1055   1.079       .  S
C1053      C1054   1.384       .  A
C1054      H1056   1.078       .  S
Cu1057     N1060   2.125       .  S
Cu1058     N1068   2.045       .  S
Cu1059     N1061   2.048   1_556  S
Cu1059     N1067   2.060       .  S
N1060      N1061   1.318       .  A
N1060      C1064   1.356       .  A
N1061      C1062   1.328   1_554  A
C1062      C1063   1.388   1_556  A
C1062      H1065   1.071       .  S
C1063      C1064   1.408       .  A
C1064      H1066   1.082       .  S
N1067      N1068   1.312       .  A
N1067      C1071   1.351       .  A
N1068      C1069   1.337       .  A
C1069      C1070   1.377       .  A
C1069      H1072   1.074       .  S
C1070      C1071   1.390       .  A
C1070      C1078   1.480       .  S
C1071      H1073   1.082       .  S
C1074      C1469   1.545   1_545  S
C1075      C1076   1.398       .  A
C1075      C1446   1.414       .  A
C1076      H1085   1.085       .  S
C1077      C1078   1.417       .  A
C1077      S1081   1.806   1_556  S
C1078      C1445   1.404       .  A
C1079      C1200   1.404       .  A
C1079      H1086   1.084       .  S
C1080      C1197   1.414       .  A
C1080      S1082   1.803       .  S
S1081      H1084   1.407       .  S
S1082      H1083   1.405       .  S
C1087      C1088   1.404       .  A
C1087      C1092   1.415       .  A
C1088      C1577   1.388       .  A
C1088      H1097   1.084       .  S
C1089      C1576   1.388   1_545  A
C1089      C1090   1.408       .  A
C1089      S1093   1.801       .  S
C1090      C1091   1.407   1_545  A
C1091      C1580   1.409       .  A
C1091      H1220   1.084       .  S
C1092      C1579   1.409       .  A
C1092      S1216   1.805       .  S
S1093      H1096   1.405       .  S
S1094      C1458   1.805       .  S
S1094      H1095   1.404       .  S
H1098      C1457   1.084       .  S
C1099      C1151   1.551       .  S
C1099      C1185   1.553       .  S
N1100      N1101   1.319       .  A
N1100      C1104   1.333       .  A
N1100     Cu1108   2.047       .  S
N1101      C1102   1.353       .  A
N1101     Cu1107   2.124       .  S
C1102      C1103   1.403       .  A
C1102      H1105   1.074       .  S
C1103      C1684   1.545       .  S
C1103      C1104   1.382       .  A
C1104      H1106   1.077       .  S
Cu1107     N1110   2.123       .  S
Cu1108     N1118   2.043       .  S
Cu1109     N1111   2.050       .  S
Cu1109     N1117   2.061       .  S
N1110      N1111   1.318       .  A
N1110      C1114   1.357       .  A
N1111      C1112   1.326       .  A
C1112      C1113   1.388       .  A
C1112      H1115   1.071       .  S
C1113      C1221   1.559       .  S
C1113      C1114   1.407       .  A
C1114      H1116   1.082       .  S
N1117      N1118   1.311       .  A
N1117      C1121   1.352       .  A
N1118      C1119   1.336       .  A
C1119      C1120   1.380       .  A
C1119      H1122   1.076       .  S
C1120      C1121   1.392       .  A
C1120      C1209   1.481       .  S
C1121      H1123   1.081       .  S
N1124      N1125   1.319       .  A
N1124      C1128   1.332       .  A
N1124     Cu1132   2.044       .  S
N1125      C1126   1.358       .  A
N1125     Cu1131   2.134       .  S
C1126      C1127   1.405       .  A
C1126      H1129   1.076       .  S
C1127      C1128   1.382       .  A
C1128      H1130   1.077   1_655  S
Cu1131     N1134   2.134       .  S
Cu1132     N1142   2.042       .  S
Cu1133     N1135   2.057       .  S
Cu1133     N1141   2.065       .  S
N1134      N1135   1.320       .  A
N1134      C1138   1.358       .  A
N1135      C1136   1.330       .  A
C1136      C1137   1.388       .  A
C1136      H1139   1.074       .  S
C1137      C1221   1.551       .  S
C1137      C1138   1.408       .  A
C1138      H1140   1.082       .  S
N1141      N1142   1.311       .  A
N1141      C1145   1.350       .  A
N1142      C1143   1.339       .  A
C1143      C1144   1.375       .  A
C1143      H1146   1.075       .  S
C1144      C1145   1.393       .  A
C1144      C1212   1.474       .  S
C1145      H1147   1.082       .  S
N1148      N1149   1.320       .  A
N1148      C1152   1.328       .  A
N1148     Cu1156   2.050       .  S
N1149      C1150   1.358       .  A
N1149     Cu1155   2.133       .  S
C1150      C1151   1.408       .  A
C1150      H1153   1.082       .  S
C1151      C1152   1.384       .  A
C1152      H1154   1.075       .  S
Cu1155     N1158   2.131       .  S
Cu1156     N1166   2.056       .  S
Cu1157     N1159   2.036       .  S
Cu1157     N1165   2.041       .  S
N1158      N1159   1.318       .  A
N1158      C1162   1.356       .  A
N1159      C1160   1.332       .  A
C1160      C1161   1.380       .  A
C1160      H1163   1.079   1_545  S
C1161      C1196   1.541       .  S
C1161      C1162   1.402       .  A
C1162      H1164   1.072       .  S
N1165      N1166   1.310       .  A
N1165      C1169   1.339       .  A
N1166      C1167   1.349       .  A
C1167      C1168   1.391       .  A
C1167      H1170   1.082       .  S
C1168      C1169   1.379       .  A
C1168      C1197   1.471       .  S
C1169      H1171   1.078       .  S
N1172      N1173   1.321       .  A
N1172      C1176   1.333       .  A
N1172     Cu1180   2.051       .  S
N1173      C1174   1.356       .  A
N1173     Cu1179   2.126       .  S
C1174      C1175   1.403       .  A
C1174      H1177   1.079       .  S
C1175      C1176   1.384       .  A
C1176      H1178   1.078       .  S
Cu1179     N1182   2.125       .  S
Cu1180     N1190   2.045       .  S
Cu1181     N1183   2.048       .  S
Cu1181     N1189   2.060       .  S
N1182      N1183   1.318       .  A
N1182      C1186   1.356       .  A
N1183      C1184   1.328       .  A
C1184      C1185   1.388       .  A
C1184      H1187   1.070       .  S
C1185      C1186   1.408       .  A
C1186      H1188   1.082       .  S
N1189      N1190   1.312       .  A
N1189      C1193   1.351       .  A
N1190      C1191   1.337       .  A
C1191      C1192   1.377       .  A
C1191      H1194   1.074       .  S
C1192      C1193   1.390       .  A
C1192      C1200   1.480       .  S
C1193      H1195   1.082       .  S
C1196      C1591   1.545   1_545  S
C1197      C1198   1.398       .  A
C1198      H1207   1.085       .  S
C1199      C1200   1.417       .  A
C1199      S1203   1.806       .  S
C1201      C1322   1.404       .  A
C1201      H1208   1.084       .  S
C1202      C1319   1.414       .  A
C1202      S1204   1.803       .  S
S1203      H1206   1.407       .  S
S1204      H1205   1.405       .  S
C1209      C1210   1.404       .  A
C1209      C1214   1.415       .  A
C1210      C1699   1.388       .  A
C1210      H1219   1.084       .  S
C1211      C1698   1.388   1_545  A
C1211      C1212   1.408       .  A
C1211      S1215   1.801       .  S
C1212      C1213   1.407   1_545  A
C1213      C1702   1.409       .  A
C1213      H1342   1.084       .  S
C1214      C1701   1.409       .  A
C1214      S1338   1.805       .  S
S1215      H1218   1.405       .  S
S1216      H1217   1.404       .  S
C1221      C1273   1.551       .  S
C1221      C1307   1.553       .  S
N1222      N1223   1.319       .  A
N1222      C1226   1.333       .  A
N1222     Cu1230   2.047       .  S
N1223      C1224   1.353       .  A
N1223     Cu1229   2.124       .  S
C1224      C1225   1.403       .  A
C1224      H1227   1.074       .  S
C1225      C1806   1.545       .  S
C1225      C1226   1.382       .  A
C1226      H1228   1.077       .  S
Cu1229     N1232   2.123       .  S
Cu1230     N1240   2.043       .  S
Cu1231     N1233   2.049       .  S
Cu1231     N1239   2.061       .  S
N1232      N1233   1.318       .  A
N1232      C1236   1.357       .  A
N1233      C1234   1.326       .  A
C1234      C1235   1.388       .  A
C1234      H1237   1.071       .  S
C1235      C1343   1.559       .  S
C1235      C1236   1.407       .  A
C1236      H1238   1.082       .  S
N1239      N1240   1.311       .  A
N1239      C1243   1.352       .  A
N1240      C1241   1.336       .  A
C1241      C1242   1.380       .  A
C1241      H1244   1.076       .  S
C1242      C1243   1.392       .  A
C1242      C1331   1.481       .  S
C1243      H1245   1.081       .  S
N1246      N1247   1.319       .  A
N1246      C1250   1.332       .  A
N1246     Cu1254   2.044       .  S
N1247      C1248   1.358       .  A
N1247     Cu1253   2.134       .  S
C1248      C1249   1.405       .  A
C1248      H1251   1.076       .  S
C1249      C1250   1.382       .  A
C1250      H1252   1.077   1_655  S
Cu1253     N1256   2.134       .  S
Cu1254     N1264   2.042       .  S
Cu1255     N1257   2.057       .  S
Cu1255     N1263   2.065       .  S
N1256      N1257   1.320       .  A
N1256      C1260   1.358       .  A
N1257      C1258   1.330       .  A
C1258      C1259   1.388       .  A
C1258      H1261   1.074       .  S
C1259      C1343   1.551       .  S
C1259      C1260   1.408       .  A
C1260      H1262   1.082       .  S
N1263      N1264   1.311       .  A
N1263      C1267   1.350       .  A
N1264      C1265   1.339       .  A
C1265      C1266   1.375       .  A
C1265      H1268   1.075       .  S
C1266      C1267   1.393       .  A
C1266      C1334   1.474       .  S
C1267      H1269   1.082       .  S
N1270      N1271   1.320       .  A
N1270      C1274   1.328       .  A
N1270     Cu1278   2.050       .  S
N1271      C1272   1.358       .  A
N1271     Cu1277   2.133       .  S
C1272      C1273   1.408       .  A
C1272      H1275   1.082       .  S
C1273      C1274   1.384       .  A
C1274      H1276   1.075       .  S
Cu1277     N1280   2.131       .  S
Cu1278     N1288   2.056       .  S
Cu1279     N1281   2.036       .  S
Cu1279     N1287   2.041       .  S
N1280      N1281   1.318       .  A
N1280      C1284   1.356       .  A
N1281      C1282   1.332       .  A
C1282      C1283   1.380       .  A
C1282      H1285   1.079   1_545  S
C1283      C1318   1.541       .  S
C1283      C1284   1.402       .  A
C1284      H1286   1.072       .  S
N1287      N1288   1.310       .  A
N1287      C1291   1.339       .  A
N1288      C1289   1.349       .  A
C1289      C1290   1.391       .  A
C1289      H1292   1.082       .  S
C1290      C1291   1.379       .  A
C1290      C1319   1.471       .  S
C1291      H1293   1.078       .  S
N1294      N1295   1.321       .  A
N1294      C1298   1.333       .  A
N1294     Cu1302   2.051       .  S
N1295      C1296   1.356       .  A
N1295     Cu1301   2.126       .  S
C1296      C1297   1.403       .  A
C1296      H1299   1.079       .  S
C1297      C1298   1.384       .  A
C1298      H1300   1.078       .  S
Cu1301     N1304   2.125       .  S
Cu1302     N1312   2.045       .  S
Cu1303     N1305   2.048       .  S
Cu1303     N1311   2.060       .  S
N1304      N1305   1.318       .  A
N1304      C1308   1.356       .  A
N1305      C1306   1.328       .  A
C1306      C1307   1.388       .  A
C1306      H1309   1.070       .  S
C1307      C1308   1.408       .  A
C1308      H1310   1.082       .  S
N1311      N1312   1.312       .  A
N1311      C1315   1.351       .  A
N1312      C1313   1.337       .  A
C1313      C1314   1.377       .  A
C1313      H1316   1.074       .  S
C1314      C1315   1.390       .  A
C1314      C1322   1.479       .  S
C1315      H1317   1.082       .  S
C1318      C1713   1.545   1_545  S
C1319      C1320   1.398       .  A
C1320      H1329   1.085       .  S
C1321      C1322   1.417       .  A
C1321      S1325   1.806       .  S
C1323      C1444   1.404       .  A
C1323      H1330   1.084       .  S
C1324      C1441   1.414       .  A
C1324      S1326   1.803       .  S
S1325      H1328   1.407       .  S
S1326      H1327   1.405       .  S
C1331      C1332   1.404       .  A
C1331      C1336   1.415       .  A
C1332      C1821   1.388       .  A
C1332      H1341   1.084       .  S
C1333      C1820   1.388   1_545  A
C1333      C1334   1.408       .  A
C1333      S1337   1.801       .  S
C1334      C1335   1.407   1_545  A
C1335      C1824   1.409       .  A
C1335      H1464   1.084       .  S
C1336      C1823   1.409       .  A
C1336      S1460   1.805       .  S
S1337      H1340   1.405       .  S
S1338      H1339   1.404       .  S
C1343      C1395   1.551       .  S
C1343      C1429   1.553       .  S
N1344      N1345   1.319       .  A
N1344      C1348   1.333       .  A
N1344     Cu1352   2.047       .  S
N1345      C1346   1.353       .  A
N1345     Cu1351   2.124       .  S
C1346      C1347   1.403       .  A
C1346      H1349   1.074       .  S
C1347      C1928   1.545       .  S
C1347      C1348   1.382       .  A
C1348      H1350   1.077       .  S
Cu1351     N1354   2.123       .  S
Cu1352     N1362   2.043   1_556  S
Cu1353     N1355   2.049   1_554  S
Cu1353     N1361   2.061       .  S
N1354      N1355   1.318       .  A
N1354      C1358   1.357       .  A
N1355      C1356   1.326       .  A
C1356      C1357   1.388       .  A
C1356      H1359   1.071   1_556  S
C1357      C1358   1.407       .  A
C1358      H1360   1.082       .  S
N1361      N1362   1.311       .  A
N1361      C1365   1.352       .  A
N1362      C1363   1.336       .  A
C1363      C1364   1.380       .  A
C1363      H1366   1.076       .  S
C1364      C1365   1.392       .  A
C1364      C1453   1.480       .  S
C1365      H1367   1.081       .  S
N1368      N1369   1.319       .  A
N1368      C1372   1.332       .  A
N1368     Cu1376   2.044       .  S
N1369      C1370   1.358       .  A
N1369     Cu1375   2.134       .  S
C1370      C1371   1.405       .  A
C1370      H1373   1.076       .  S
C1371      C1372   1.382       .  A
C1372      H1374   1.077   1_655  S
Cu1375     N1378   2.134       .  S
Cu1376     N1386   2.042   1_556  S
Cu1377     N1379   2.057   1_554  S
Cu1377     N1385   2.065       .  S
N1378      N1379   1.320       .  A
N1378      C1382   1.358       .  A
N1379      C1380   1.330       .  A
C1380      C1381   1.388       .  A
C1380      H1383   1.074   1_556  S
C1381      C1382   1.408       .  A
C1382      H1384   1.082       .  S
N1385      N1386   1.311       .  A
N1385      C1389   1.350       .  A
N1386      C1387   1.339       .  A
C1387      C1388   1.375       .  A
C1387      H1390   1.075       .  S
C1388      C1389   1.393       .  A
C1388      C1456   1.474       .  S
C1389      H1391   1.082       .  S
N1392      N1393   1.320       .  A
N1392      C1396   1.328       .  A
N1392     Cu1400   2.050       .  S
N1393      C1394   1.358       .  A
N1393     Cu1399   2.133       .  S
C1394      C1395   1.408       .  A
C1394      H1397   1.082       .  S
C1395      C1396   1.384       .  A
C1396      H1398   1.075       .  S
Cu1399     N1402   2.131       .  S
Cu1400     N1410   2.056       .  S
Cu1401     N1403   2.036       .  S
Cu1401     N1409   2.041       .  S
N1402      N1403   1.318       .  A
N1402      C1406   1.356       .  A
N1403      C1404   1.332       .  A
C1404      C1405   1.380       .  A
C1404      H1407   1.079   1_545  S
C1405      C1440   1.541       .  S
C1405      C1406   1.402       .  A
C1406      H1408   1.072       .  S
N1409      N1410   1.310       .  A
N1409      C1413   1.339       .  A
N1410      C1411   1.349       .  A
C1411      C1412   1.391       .  A
C1411      H1414   1.082       .  S
C1412      C1413   1.379       .  A
C1412      C1441   1.471       .  S
C1413      H1415   1.078       .  S
N1416      N1417   1.321       .  A
N1416      C1420   1.333       .  A
N1416     Cu1424   2.051       .  S
N1417      C1418   1.356       .  A
N1417     Cu1423   2.126       .  S
C1418      C1419   1.403       .  A
C1418      H1421   1.079       .  S
C1419      C1420   1.384       .  A
C1420      H1422   1.078       .  S
Cu1423     N1426   2.125       .  S
Cu1424     N1434   2.045       .  S
Cu1425     N1427   2.048       .  S
Cu1425     N1433   2.061       .  S
N1426      N1427   1.318       .  A
N1426      C1430   1.356       .  A
N1427      C1428   1.328       .  A
C1428      C1429   1.388       .  A
C1428      H1431   1.070       .  S
C1429      C1430   1.408       .  A
C1430      H1432   1.082       .  S
N1433      N1434   1.312       .  A
N1433      C1437   1.351       .  A
N1434      C1435   1.337       .  A
C1435      C1436   1.377       .  A
C1435      H1438   1.074       .  S
C1436      C1437   1.390       .  A
C1436      C1444   1.479       .  S
C1437      H1439   1.082       .  S
C1440      C1835   1.545   1_545  S
C1441      C1442   1.398       .  A
C1442      H1451   1.085       .  S
C1443      C1444   1.417       .  A
C1443      S1447   1.806       .  S
C1445      H1452   1.084       .  S
C1446      S1448   1.803       .  S
S1447      H1450   1.407       .  S
S1448      H1449   1.405       .  S
C1453      C1454   1.404       .  A
C1453      C1458   1.415       .  A
C1454      C1943   1.388       .  A
C1454      H1463   1.084       .  S
C1455      C1942   1.388   1_545  A
C1455      C1456   1.408       .  A
C1455      S1459   1.801       .  S
C1456      C1457   1.407   1_545  A
C1457      C1946   1.409       .  A
C1458      C1945   1.409       .  A
S1459      H1462   1.405   1_554  S
S1460      H1461   1.404       .  S
C1465      C1845   1.558       .  S
C1465      C1869   1.551       .  S
C1465      C1517   1.551   1_556  S
C1465      C1551   1.553   1_556  S
N1466      N1467   1.319       .  A
N1466      C1470   1.333       .  A
N1466     Cu1474   2.047       .  S
N1467      C1468   1.353       .  A
N1467     Cu1473   2.124       .  S
C1468      C1469   1.403       .  A
C1468      H1471   1.074       .  S
C1469      C1470   1.382       .  A
C1470      H1472   1.077       .  S
Cu1473     N1476   2.123       .  S
Cu1474     N1484   2.043       .  S
Cu1475     N1477   2.050       .  S
Cu1475     N1483   2.061       .  S
N1476      N1477   1.318       .  A
N1476      C1480   1.357       .  A
N1477      C1478   1.326       .  A
C1478      C1479   1.388       .  A
C1478      H1481   1.071       .  S
C1479      C1587   1.559       .  S
C1479      C1480   1.407       .  A
C1480      H1482   1.082       .  S
N1483      N1484   1.311       .  A
N1483      C1487   1.352       .  A
N1484      C1485   1.336       .  A
C1485      C1486   1.380       .  A
C1485      H1488   1.076       .  S
C1486      C1487   1.392       .  A
C1486      C1575   1.480       .  S
C1487      H1489   1.081       .  S
N1490      N1491   1.319       .  A
N1490      C1494   1.332       .  A
N1490     Cu1498   2.044       .  S
N1491      C1492   1.358       .  A
N1491     Cu1497   2.134       .  S
C1492      C1493   1.405       .  A
C1492      H1495   1.076       .  S
C1493      C1494   1.382       .  A
C1494      H1496   1.077   1_655  S
Cu1497     N1500   2.135       .  S
Cu1498     N1508   2.042       .  S
Cu1499     N1501   2.057       .  S
Cu1499     N1507   2.065       .  S
N1500      N1501   1.320       .  A
N1500      C1504   1.358       .  A
N1501      C1502   1.330       .  A
C1502      C1503   1.388       .  A
C1502      H1505   1.074       .  S
C1503      C1587   1.551       .  S
C1503      C1504   1.408       .  A
C1504      H1506   1.082       .  S
N1507      N1508   1.311       .  A
N1507      C1511   1.350       .  A
N1508      C1509   1.339       .  A
C1509      C1510   1.375       .  A
C1509      H1512   1.075       .  S
C1510      C1511   1.393       .  A
C1510      C1578   1.474       .  S
C1511      H1513   1.082       .  S
N1514      N1515   1.320       .  A
N1514      C1518   1.328       .  A
N1514     Cu1522   2.050   1_554  S
N1515      C1516   1.358       .  A
N1515     Cu1521   2.133       .  S
C1516      C1517   1.407       .  A
C1516      H1519   1.082       .  S
C1517      C1518   1.384       .  A
C1518      H1520   1.075   1_554  S
Cu1521     N1524   2.131       .  S
Cu1522     N1532   2.056       .  S
Cu1523     N1525   2.036       .  S
Cu1523     N1531   2.041   1_554  S
N1524      N1525   1.318       .  A
N1524      C1528   1.356       .  A
N1525      C1526   1.332       .  A
C1526      C1527   1.380       .  A
C1526      H1529   1.079       .  S
C1527      C1562   1.541       .  S
C1527      C1528   1.402       .  A
C1528      H1530   1.072       .  S
N1531      N1532   1.310       .  A
N1531      C1535   1.339       .  A
N1532      C1533   1.349       .  A
C1533      C1534   1.391       .  A
C1533      H1536   1.082       .  S
C1534      C1535   1.379       .  A
C1534      C1563   1.471       .  S
C1535      H1537   1.078       .  S
N1538      N1539   1.321       .  A
N1538      C1542   1.333       .  A
N1538     Cu1546   2.051   1_554  S
N1539      C1540   1.356       .  A
N1539     Cu1545   2.126       .  S
C1540      C1541   1.403       .  A
C1540      H1543   1.079       .  S
C1541      C1542   1.384       .  A
C1542      H1544   1.078   1_565  S
Cu1545     N1548   2.125       .  S
Cu1546     N1556   2.045       .  S
Cu1547     N1549   2.048   1_556  S
Cu1547     N1555   2.060       .  S
N1548      N1549   1.318       .  A
N1548      C1552   1.356       .  A
N1549      C1550   1.328   1_554  A
C1550      C1551   1.388   1_556  A
C1550      H1553   1.071       .  S
C1551      C1552   1.408       .  A
C1552      H1554   1.082       .  S
N1555      N1556   1.312       .  A
N1555      C1559   1.351       .  A
N1556      C1557   1.337       .  A
C1557      C1558   1.377       .  A
C1557      H1560   1.074       .  S
C1558      C1559   1.390       .  A
C1558      C1566   1.480       .  S
C1559      H1561   1.082       .  S
C1563      C1564   1.398       .  A
C1563      C1934   1.414       .  A
C1564      H1573   1.085       .  S
C1565      C1566   1.417       .  A
C1565      S1569   1.806   1_556  S
C1566      C1933   1.404       .  A
C1567      C1688   1.404       .  A
C1567      H1574   1.084       .  S
C1568      C1685   1.414       .  A
C1568      S1570   1.803       .  S
S1569      H1572   1.407       .  S
S1570      H1571   1.405       .  S
C1575      C1576   1.404       .  A
C1575      C1580   1.415       .  A
C1576      H1585   1.084       .  S
C1577      C1578   1.408       .  A
C1577      S1581   1.801       .  S
C1578      C1579   1.407       .  A
C1579      H1708   1.084       .  S
C1580      S1704   1.805       .  S
S1581      H1584   1.405       .  S
S1582      C1946   1.805       .  S
S1582      H1583   1.404       .  S
H1586      C1945   1.084       .  S
C1587      C1639   1.551       .  S
C1587      C1673   1.553       .  S
N1588      N1589   1.319       .  A
N1588      C1592   1.333       .  A
N1588     Cu1596   2.047       .  S
N1589      C1590   1.353       .  A
N1589     Cu1595   2.124       .  S
C1590      C1591   1.403       .  A
C1590      H1593   1.074       .  S
C1591      C1592   1.382       .  A
C1592      H1594   1.077       .  S
Cu1595     N1598   2.123       .  S
Cu1596     N1606   2.043       .  S
Cu1597     N1599   2.050       .  S
Cu1597     N1605   2.061       .  S
N1598      N1599   1.318       .  A
N1598      C1602   1.357       .  A
N1599      C1600   1.326       .  A
C1600      C1601   1.388       .  A
C1600      H1603   1.071       .  S
C1601      C1709   1.559       .  S
C1601      C1602   1.407       .  A
C1602      H1604   1.082       .  S
N1605      N1606   1.311       .  A
N1605      C1609   1.352       .  A
N1606      C1607   1.336       .  A
C1607      C1608   1.380       .  A
C1607      H1610   1.076       .  S
C1608      C1609   1.392       .  A
C1608      C1697   1.481       .  S
C1609      H1611   1.081       .  S
N1612      N1613   1.319       .  A
N1612      C1616   1.332       .  A
N1612     Cu1620   2.044       .  S
N1613      C1614   1.358       .  A
N1613     Cu1619   2.134       .  S
C1614      C1615   1.405       .  A
C1614      H1617   1.076       .  S
C1615      C1616   1.382       .  A
C1616      H1618   1.077   1_655  S
Cu1619     N1622   2.134       .  S
Cu1620     N1630   2.042       .  S
Cu1621     N1623   2.057       .  S
Cu1621     N1629   2.065       .  S
N1622      N1623   1.320       .  A
N1622      C1626   1.358       .  A
N1623      C1624   1.330       .  A
C1624      C1625   1.388       .  A
C1624      H1627   1.074       .  S
C1625      C1709   1.551       .  S
C1625      C1626   1.408       .  A
C1626      H1628   1.082       .  S
N1629      N1630   1.311       .  A
N1629      C1633   1.350       .  A
N1630      C1631   1.339       .  A
C1631      C1632   1.375       .  A
C1631      H1634   1.075       .  S
C1632      C1633   1.393       .  A
C1632      C1700   1.474       .  S
C1633      H1635   1.082       .  S
N1636      N1637   1.320       .  A
N1636      C1640   1.328       .  A
N1636     Cu1644   2.050       .  S
N1637      C1638   1.358       .  A
N1637     Cu1643   2.133       .  S
C1638      C1639   1.408       .  A
C1638      H1641   1.082       .  S
C1639      C1640   1.384       .  A
C1640      H1642   1.075       .  S
Cu1643     N1646   2.131       .  S
Cu1644     N1654   2.056       .  S
Cu1645     N1647   2.036       .  S
Cu1645     N1653   2.041       .  S
N1646      N1647   1.318       .  A
N1646      C1650   1.356       .  A
N1647      C1648   1.332       .  A
C1648      C1649   1.380       .  A
C1648      H1651   1.079       .  S
C1649      C1684   1.541       .  S
C1649      C1650   1.402       .  A
C1650      H1652   1.072       .  S
N1653      N1654   1.310       .  A
N1653      C1657   1.339       .  A
N1654      C1655   1.349       .  A
C1655      C1656   1.391       .  A
C1655      H1658   1.082       .  S
C1656      C1657   1.379       .  A
C1656      C1685   1.471       .  S
C1657      H1659   1.078       .  S
N1660      N1661   1.321       .  A
N1660      C1664   1.333       .  A
N1660     Cu1668   2.051       .  S
N1661      C1662   1.356       .  A
N1661     Cu1667   2.126       .  S
C1662      C1663   1.403       .  A
C1662      H1665   1.079       .  S
C1663      C1664   1.384       .  A
C1664      H1666   1.078   1_565  S
Cu1667     N1670   2.125       .  S
Cu1668     N1678   2.045       .  S
Cu1669     N1671   2.048       .  S
Cu1669     N1677   2.060       .  S
N1670      N1671   1.318       .  A
N1670      C1674   1.356       .  A
N1671      C1672   1.328       .  A
C1672      C1673   1.388       .  A
C1672      H1675   1.070       .  S
C1673      C1674   1.408       .  A
C1674      H1676   1.082       .  S
N1677      N1678   1.312       .  A
N1677      C1681   1.351       .  A
N1678      C1679   1.337       .  A
C1679      C1680   1.377       .  A
C1679      H1682   1.074       .  S
C1680      C1681   1.390       .  A
C1680      C1688   1.480       .  S
C1681      H1683   1.082       .  S
C1685      C1686   1.398       .  A
C1686      H1695   1.085       .  S
C1687      C1688   1.417       .  A
C1687      S1691   1.806       .  S
C1689      C1810   1.404       .  A
C1689      H1696   1.084       .  S
C1690      C1807   1.414       .  A
C1690      S1692   1.803       .  S
S1691      H1694   1.407       .  S
S1692      H1693   1.405       .  S
C1697      C1698   1.404       .  A
C1697      C1702   1.415       .  A
C1698      H1707   1.084       .  S
C1699      C1700   1.408       .  A
C1699      S1703   1.801       .  S
C1700      C1701   1.407       .  A
C1701      H1830   1.084       .  S
C1702      S1826   1.805       .  S
S1703      H1706   1.405       .  S
S1704      H1705   1.404       .  S
C1709      C1761   1.551       .  S
C1709      C1795   1.553       .  S
N1710      N1711   1.319       .  A
N1710      C1714   1.333       .  A
N1710     Cu1718   2.047       .  S
N1711      C1712   1.353       .  A
N1711     Cu1717   2.124       .  S
C1712      C1713   1.403       .  A
C1712      H1715   1.074       .  S
C1713      C1714   1.382       .  A
C1714      H1716   1.077       .  S
Cu1717     N1720   2.123       .  S
Cu1718     N1728   2.043       .  S
Cu1719     N1721   2.049       .  S
Cu1719     N1727   2.061       .  S
N1720      N1721   1.318       .  A
N1720      C1724   1.357       .  A
N1721      C1722   1.326       .  A
C1722      C1723   1.388       .  A
C1722      H1725   1.071       .  S
C1723      C1831   1.559       .  S
C1723      C1724   1.407       .  A
C1724      H1726   1.082       .  S
N1727      N1728   1.311       .  A
N1727      C1731   1.352       .  A
N1728      C1729   1.336       .  A
C1729      C1730   1.380       .  A
C1729      H1732   1.076       .  S
C1730      C1731   1.392       .  A
C1730      C1819   1.481       .  S
C1731      H1733   1.081       .  S
N1734      N1735   1.319       .  A
N1734      C1738   1.332       .  A
N1734     Cu1742   2.044       .  S
N1735      C1736   1.358       .  A
N1735     Cu1741   2.134       .  S
C1736      C1737   1.405       .  A
C1736      H1739   1.076       .  S
C1737      C1738   1.382       .  A
C1738      H1740   1.077   1_655  S
Cu1741     N1744   2.134       .  S
Cu1742     N1752   2.042       .  S
Cu1743     N1745   2.057       .  S
Cu1743     N1751   2.065       .  S
N1744      N1745   1.320       .  A
N1744      C1748   1.358       .  A
N1745      C1746   1.330       .  A
C1746      C1747   1.388       .  A
C1746      H1749   1.074       .  S
C1747      C1831   1.551       .  S
C1747      C1748   1.408       .  A
C1748      H1750   1.082       .  S
N1751      N1752   1.311       .  A
N1751      C1755   1.350       .  A
N1752      C1753   1.339       .  A
C1753      C1754   1.375       .  A
C1753      H1756   1.075       .  S
C1754      C1755   1.393       .  A
C1754      C1822   1.474       .  S
C1755      H1757   1.082       .  S
N1758      N1759   1.320       .  A
N1758      C1762   1.328       .  A
N1758     Cu1766   2.050       .  S
N1759      C1760   1.358       .  A
N1759     Cu1765   2.133       .  S
C1760      C1761   1.408       .  A
C1760      H1763   1.082       .  S
C1761      C1762   1.384       .  A
C1762      H1764   1.075       .  S
Cu1765     N1768   2.131       .  S
Cu1766     N1776   2.056       .  S
Cu1767     N1769   2.036       .  S
Cu1767     N1775   2.041       .  S
N1768      N1769   1.318       .  A
N1768      C1772   1.356       .  A
N1769      C1770   1.332       .  A
C1770      C1771   1.380       .  A
C1770      H1773   1.079       .  S
C1771      C1806   1.541       .  S
C1771      C1772   1.402       .  A
C1772      H1774   1.072       .  S
N1775      N1776   1.310       .  A
N1775      C1779   1.339       .  A
N1776      C1777   1.349       .  A
C1777      C1778   1.391       .  A
C1777      H1780   1.082       .  S
C1778      C1779   1.379       .  A
C1778      C1807   1.471       .  S
C1779      H1781   1.078       .  S
N1782      N1783   1.321       .  A
N1782      C1786   1.333       .  A
N1782     Cu1790   2.051       .  S
N1783      C1784   1.356       .  A
N1783     Cu1789   2.126       .  S
C1784      C1785   1.403       .  A
C1784      H1787   1.079       .  S
C1785      C1786   1.384       .  A
C1786      H1788   1.078   1_565  S
Cu1789     N1792   2.125       .  S
Cu1790     N1800   2.045       .  S
Cu1791     N1793   2.048       .  S
Cu1791     N1799   2.060       .  S
N1792      N1793   1.318       .  A
N1792      C1796   1.356       .  A
N1793      C1794   1.328       .  A
C1794      C1795   1.388       .  A
C1794      H1797   1.070       .  S
C1795      C1796   1.408       .  A
C1796      H1798   1.082       .  S
N1799      N1800   1.312       .  A
N1799      C1803   1.351       .  A
N1800      C1801   1.337       .  A
C1801      C1802   1.377       .  A
C1801      H1804   1.074       .  S
C1802      C1803   1.390       .  A
C1802      C1810   1.479       .  S
C1803      H1805   1.082       .  S
C1807      C1808   1.398       .  A
C1808      H1817   1.085       .  S
C1809      C1810   1.417       .  A
C1809      S1813   1.806       .  S
C1811      C1932   1.404       .  A
C1811      H1818   1.084       .  S
C1812      C1929   1.414       .  A
C1812      S1814   1.803       .  S
S1813      H1816   1.407       .  S
S1814      H1815   1.405       .  S
C1819      C1820   1.404       .  A
C1819      C1824   1.415       .  A
C1820      H1829   1.084       .  S
C1821      C1822   1.408       .  A
C1821      S1825   1.801       .  S
C1822      C1823   1.407       .  A
C1823      H1952   1.084       .  S
C1824      S1948   1.805       .  S
S1825      H1828   1.405       .  S
S1826      H1827   1.404       .  S
C1831      C1883   1.551       .  S
C1831      C1917   1.553       .  S
N1832      N1833   1.319       .  A
N1832      C1836   1.333       .  A
N1832     Cu1840   2.047       .  S
N1833      C1834   1.353       .  A
N1833     Cu1839   2.124       .  S
C1834      C1835   1.403       .  A
C1834      H1837   1.074       .  S
C1835      C1836   1.382       .  A
C1836      H1838   1.077       .  S
Cu1839     N1842   2.123       .  S
Cu1840     N1850   2.043   1_556  S
Cu1841     N1843   2.049   1_554  S
Cu1841     N1849   2.061       .  S
N1842      N1843   1.318       .  A
N1842      C1846   1.357       .  A
N1843      C1844   1.326       .  A
C1844      C1845   1.388       .  A
C1844      H1847   1.071   1_556  S
C1845      C1846   1.407       .  A
C1846      H1848   1.082       .  S
N1849      N1850   1.311       .  A
N1849      C1853   1.352       .  A
N1850      C1851   1.336       .  A
C1851      C1852   1.380       .  A
C1851      H1854   1.076       .  S
C1852      C1853   1.392       .  A
C1852      C1941   1.480       .  S
C1853      H1855   1.081       .  S
N1856      N1857   1.319       .  A
N1856      C1860   1.332       .  A
N1856     Cu1864   2.044       .  S
N1857      C1858   1.358       .  A
N1857     Cu1863   2.134       .  S
C1858      C1859   1.405       .  A
C1858      H1861   1.076       .  S
C1859      C1860   1.382       .  A
C1860      H1862   1.077   1_655  S
Cu1863     N1866   2.134       .  S
Cu1864     N1874   2.042   1_556  S
Cu1865     N1867   2.057   1_554  S
Cu1865     N1873   2.065       .  S
N1866      N1867   1.320       .  A
N1866      C1870   1.358       .  A
N1867      C1868   1.330       .  A
C1868      C1869   1.388       .  A
C1868      H1871   1.074   1_556  S
C1869      C1870   1.408       .  A
C1870      H1872   1.082       .  S
N1873      N1874   1.311       .  A
N1873      C1877   1.350       .  A
N1874      C1875   1.339       .  A
C1875      C1876   1.375       .  A
C1875      H1878   1.075       .  S
C1876      C1877   1.393       .  A
C1876      C1944   1.474       .  S
C1877      H1879   1.082       .  S
N1880      N1881   1.320       .  A
N1880      C1884   1.328       .  A
N1880     Cu1888   2.050       .  S
N1881      C1882   1.358       .  A
N1881     Cu1887   2.133       .  S
C1882      C1883   1.408       .  A
C1882      H1885   1.082       .  S
C1883      C1884   1.384       .  A
C1884      H1886   1.075       .  S
Cu1887     N1890   2.131       .  S
Cu1888     N1898   2.056       .  S
Cu1889     N1891   2.036       .  S
Cu1889     N1897   2.041       .  S
N1890      N1891   1.318       .  A
N1890      C1894   1.356       .  A
N1891      C1892   1.332       .  A
C1892      C1893   1.380       .  A
C1892      H1895   1.079       .  S
C1893      C1928   1.541       .  S
C1893      C1894   1.402       .  A
C1894      H1896   1.072       .  S
N1897      N1898   1.310       .  A
N1897      C1901   1.339       .  A
N1898      C1899   1.349       .  A
C1899      C1900   1.391       .  A
C1899      H1902   1.082       .  S
C1900      C1901   1.379       .  A
C1900      C1929   1.471       .  S
C1901      H1903   1.078       .  S
N1904      N1905   1.321       .  A
N1904      C1908   1.333       .  A
N1904     Cu1912   2.051       .  S
N1905      C1906   1.356       .  A
N1905     Cu1911   2.126       .  S
C1906      C1907   1.403       .  A
C1906      H1909   1.079       .  S
C1907      C1908   1.384       .  A
C1908      H1910   1.078   1_565  S
Cu1911     N1914   2.125       .  S
Cu1912     N1922   2.045       .  S
Cu1913     N1915   2.048       .  S
Cu1913     N1921   2.061       .  S
N1914      N1915   1.318       .  A
N1914      C1918   1.356       .  A
N1915      C1916   1.328       .  A
C1916      C1917   1.388       .  A
C1916      H1919   1.070       .  S
C1917      C1918   1.408       .  A
C1918      H1920   1.082       .  S
N1921      N1922   1.312       .  A
N1921      C1925   1.351       .  A
N1922      C1923   1.337       .  A
C1923      C1924   1.377       .  A
C1923      H1926   1.074       .  S
C1924      C1925   1.390       .  A
C1924      C1932   1.479       .  S
C1925      H1927   1.082       .  S
C1929      C1930   1.398       .  A
C1930      H1939   1.085       .  S
C1931      C1932   1.417       .  A
C1931      S1935   1.806       .  S
C1933      H1940   1.084       .  S
C1934      S1936   1.803       .  S
S1935      H1938   1.407       .  S
S1936      H1937   1.405       .  S
C1941      C1942   1.404       .  A
C1941      C1946   1.415       .  A
C1942      H1951   1.084       .  S
C1943      C1944   1.408       .  A
C1943      S1947   1.801       .  S
C1944      C1945   1.407       .  A
S1947      H1950   1.405   1_554  S
S1948      H1949   1.404       .  S
