geometry optimzed in LAMMPS
_audit_creation_date              2020-12-01 
_audit_creation_method            'lammps2cif' 
_symmetry_space_group_name_H-M    'P1' 
_symmetry_Int_Tables_number       1 
_symmetry_cell_setting            triclinic 
loop_ 
_symmetry_equiv_pos_as_xyz 
  x,y,z 
_cell_length_a                    29.51855819 
_cell_length_b                    28.41600173353728 
_cell_length_c                    26.10274865971155 
_cell_angle_alpha                 89.92550719097358 
_cell_angle_beta                  90.23720645715856 
_cell_angle_gamma                 90.00851139482701 
loop_ 
_atom_site_label 
_atom_site_type_symbol 
_atom_site_fract_x 
_atom_site_fract_y 
_atom_site_fract_z 
_atom_site_charge 
C1          C  0.28373681  0.21774687  0.03654426     0.79500
N2          N  0.32311382  0.23386525  0.51837723    -0.78800
C3          C  0.35021748  0.20878399  0.48614847     0.81900
N4          N  0.33667333  0.16398301  0.47111401    -0.78800
C5          C  0.29536217  0.14908325  0.98768851     0.82000
N6          N  0.27071781  0.17528353  0.02009424    -0.80500
C7          C  0.40585985  0.46726069  0.28461487     0.79500
N8          N  0.42009897  0.42598245  0.26596429    -0.78800
C9          C  0.39464675  0.39920883  0.23445216     0.81900
N10         N  0.35202086  0.41497887  0.22001136    -0.78800
C11         C  0.33751458  0.45849397  0.23774929     0.82000
N12         N  0.36497503  0.48360742  0.26944793    -0.80500
C13         C  0.15123224  0.34561032  0.03980501     0.79500
N14         N  0.16742154  0.38662965  0.02203626    -0.78800
C15         C  0.14453279  0.41339470  0.98797402     0.81900
N16         N  0.10280251  0.39786301  0.96992663    -0.78800
C17         C  0.08655040  0.35455496  0.98656574     0.82000
N18         N  0.11139831  0.32951550  0.02098843    -0.80500
O19         O  0.14712682  0.03690177  0.22141351    -0.72500
O20         O  0.25602104  0.46253673  0.22002264    -0.72800
O21         O  0.20169069  0.99891464  0.29246474    -0.72600
O22         O  0.20093052  0.00024029  0.14749991    -0.72600
O23         O  0.24066915  0.06469011  0.14769242    -0.72600
O24         O  0.23972819  0.06448627  0.29330655    -0.72600
O25         O  0.29451889  0.02794041  0.22218938    -0.72500
O26         O  0.18540281  0.10207325  0.22055172    -0.72700
V27         V  0.20181974  0.50105921  0.21958795     1.35200
V28         V  0.23946240  0.06345965  0.22052530     1.35200
C29         C  0.14733573  0.08168393  0.22372470     0.76700
C30         C  0.29408314  0.48300310  0.22369970     0.76800
C31         C  0.22074899  0.03135730  0.31736701     0.76600
C32         C  0.22083232  0.03240112  0.12303400     0.76600
O33         O  0.15167056  0.99751185  0.97048164    -0.72500
O34         O  0.22858023  0.10441067  0.47112150    -0.72800
O35         O  0.19026507  0.05145873  0.39762741    -0.72600
O36         O  0.19039812  0.05331749  0.04225942    -0.72600
O37         O  0.25091922  0.00972456  0.04302061    -0.72600
O38         O  0.25078504  0.00778128  0.39716625    -0.72600
O39         O  0.28942277  0.06451344  0.97067536    -0.72500
O40         O  0.21214787  0.45233858  0.46937088    -0.72700
V41         V  0.19142390  0.05171890  0.96951661     1.35200
V42         V  0.24968538  0.01014032  0.97026943     1.35200
C43         C  0.16986046  0.45702056  0.97272660     0.76700
C44         C  0.27127652  0.10489065  0.97220397     0.76800
C45         C  0.22071259  0.03031781  0.37294251     0.76600
C46         C  0.22082640  0.03196720  0.06721664     0.76600
C47         C  0.03808637  0.09703920  0.28878068     0.79500
N48         N  0.02177125  0.13733311  0.26906672    -0.78800
C49         C  0.04546959  0.16386745  0.23563108     0.81900
N50         N  0.08798269  0.14872765  0.22016806    -0.78800
C51         C  0.10428824  0.10617319  0.23892395     0.82000
N52         N  0.07882175  0.08153317  0.27270037    -0.80500
O53         O  0.03815437  0.24747752  0.21566674    -0.72500
O54         O  0.46171465  0.35777196  0.21499943    -0.72800
O55         O  0.49934133  0.30314469  0.28735787    -0.72600
O56         O  0.50003684  0.30465454  0.14184079    -0.72600
O57         O  0.43947323  0.26101074  0.14105222    -0.72600
O58         O  0.43902816  0.25924670  0.28619270    -0.72600
O59         O  0.40070450  0.31519245  0.21467430    -0.72500
O60         O  0.47800005  0.20593389  0.21378844    -0.72700
V61         V  0.99828194  0.30148971  0.21491767     1.35200
V62         V  0.44061200  0.26101166  0.21352578     1.35200
C63         C  0.02036818  0.20701833  0.21843700     0.76700
C64         C  0.41876335  0.35555555  0.21771961     0.76800
C65         C  0.46889106  0.28110215  0.31140235     0.76600
C66         C  0.46955337  0.28335892  0.11700048     0.76600
O67         O  0.50668146  0.34802016  0.46343111    -0.72500
O68         O  0.39435762  0.27996584  0.96801239    -0.72800
O69         O  0.45172678  0.31717742  0.03670229    -0.72600
O70         O  0.44813175  0.31224828  0.39221999    -0.72600
O71         O  0.48828261  0.24811264  0.39175599    -0.72600
O72         O  0.48650350  0.24968485  0.03734160    -0.72600
O73         O  0.43072356  0.21157043  0.46357219    -0.72500
O74         O  0.04254436  0.28580796  0.96816174    -0.72700
V75         V  0.45047756  0.31415417  0.96406073     1.34800
V76         V  0.48633325  0.25092527  0.96499285     1.35200
C77         C  0.04334223  0.33062980  0.96964662     0.76700
C78         C  0.39355029  0.23519719  0.97038755     0.76800
C79         C  0.46940411  0.28362759  0.06147496     0.76600
C80         C  0.46838455  0.28050183  0.36735489     0.76600
C81         C  0.01904928  0.01721928  0.31899648    -0.09900
C82         C  0.00720231  0.06486206  0.31624006     0.06300
C83         C  0.46030658  0.07992486  0.32317111    -0.03700
C84         C  0.42697423  0.04528846  0.32036690    -0.08100
C85         C  0.43842095  0.49819708  0.31165953     0.05400
C86         C  0.48425863  0.48490845  0.31946572    -0.03200
Br87       Br  0.50517143  0.42094698  0.32446045    -0.02900
H88         H  0.05424336  0.00649512  0.31661540     0.09300
H89         H  0.39166982  0.05602922  0.31982902     0.07300
Br90       Br  0.44039853  0.14360527  0.33358209    -0.03300
C91         C  0.17079812  0.26470610  0.57186815    -0.09900
C92         C  0.18179065  0.31403864  0.06890786     0.06300
C93         C  0.22686589  0.32739333  0.08020736    -0.03700
C94         C  0.26127357  0.29393726  0.07590605    -0.08100
C95         C  0.25048415  0.24699943  0.06468981     0.05400
C96         C  0.20475594  0.23073643  0.57077541    -0.03200
Br97       Br  0.18417478  0.16648006  0.57274441    -0.02900
H98         H  0.13580454  0.25345835  0.56926526     0.09300
H99         H  0.29628675  0.30541893  0.07716643     0.07300
Br100      Br  0.24360594  0.39052698  0.09846219    -0.03300
C101        C  0.28397075  0.21566426  0.53694303     0.79500
N102        N  0.32311376  0.23587188  0.01852218    -0.78800
C103        C  0.35021054  0.21092856  0.98613730     0.81900
N104        N  0.33647267  0.16638046  0.97046521    -0.78800
C105        C  0.29584576  0.14650040  0.48898657     0.82000
N106        N  0.27124832  0.17284025  0.52133188    -0.80500
C107        C  0.40706741  0.46341000  0.78681287     0.79500
N108        N  0.42124540  0.42243466  0.76722096    -0.78800
C109        C  0.39585782  0.39640045  0.73490595     0.81900
N110        N  0.35332505  0.41256806  0.72072905    -0.78800
C111        C  0.33879110  0.45574327  0.73938042     0.82000
N112        N  0.36622038  0.48022128  0.77182445    -0.80500
C113        C  0.15094423  0.34363135  0.53938780     0.79500
N114        N  0.16681896  0.38460952  0.52126370    -0.78800
C115        C  0.14376507  0.41103053  0.48708526     0.81900
N116        N  0.10203197  0.39517187  0.46928973    -0.78800
C117        C  0.08598973  0.35187427  0.48635489     0.82000
N118        N  0.11110101  0.32719074  0.52087550    -0.80500
O119        O  0.14780325  0.03468213  0.72129610    -0.72500
O120        O  0.25729385  0.46004957  0.72153508    -0.72800
O121        O  0.20214731  0.99766385  0.79315687    -0.72600
O122        O  0.20172433  0.99678903  0.64810665    -0.72600
O123        O  0.24192883  0.06091354  0.64742383    -0.72600
O124        O  0.24002539  0.06334481  0.79287913    -0.72600
O125        O  0.29533452  0.02531054  0.72326730    -0.72500
O126        O  0.18616832  0.09974515  0.71909096    -0.72700
V127        V  0.20307674  0.49860284  0.72035512     1.35200
V128        V  0.24025487  0.06097142  0.72024138     1.35200
C129        C  0.14802743  0.07951680  0.72275256     0.76700
C130        C  0.29541836  0.48045560  0.72507786     0.76800
C131        C  0.22098282  0.03062783  0.81747049     0.76600
C132        C  0.22184734  0.02851938  0.62318340     0.76600
O133        O  0.15161596  0.99537593  0.46991442    -0.72500
O134        O  0.22827247  0.10682823  0.96932428    -0.72800
O135        O  0.19017412  0.05218657  0.89704828    -0.72600
O136        O  0.19070859  0.04964233  0.54285969    -0.72600
O137        O  0.25127754  0.00613288  0.54256037    -0.72600
O138        O  0.25100602  0.00895575  0.89777294    -0.72600
O139        O  0.28965165  0.06198020  0.47099755    -0.72500
O140        O  0.21294438  0.45480012  0.97085366    -0.72700
V141        V  0.19158582  0.04945218  0.47009474     1.35200
V142        V  0.24972099  0.00770381  0.46974946     1.35200
C143        C  0.16906624  0.45466694  0.47164953     0.76700
C144        C  0.27159346  0.10236933  0.47350524     0.76800
C145        C  0.22076877  0.03068579  0.87297839     0.76600
C146        C  0.22129656  0.02804738  0.56731284     0.76600
C147        C  0.03823644  0.09535182  0.78682588     0.79500
N148        N  0.02283517  0.13634560  0.76823011    -0.78800
C149        C  0.04692432  0.16314641  0.73554827     0.81900
N150        N  0.08926653  0.14758489  0.71974765    -0.78800
C151        C  0.10484542  0.10429606  0.73753366     0.82000
N152        N  0.07872940  0.07937320  0.77047678    -0.80500
O153        O  0.03912747  0.24706889  0.71596453    -0.72500
O154        O  0.46269668  0.35471120  0.71452091    -0.72800
O155        O  0.50000400  0.30058729  0.78707521    -0.72600
O156        O  0.50047284  0.30038471  0.64180461    -0.72600
O157        O  0.44001922  0.25656970  0.64156909    -0.72600
O158        O  0.43880743  0.25798939  0.78675189    -0.72600
O159        O  0.40135415  0.31264751  0.71397424    -0.72500
O160        O  0.47751808  0.20259980  0.71593011    -0.72700
V161        V  0.99868658  0.30074551  0.71400822     1.35200
V162        V  0.44074376  0.25808001  0.71410393     1.35200
C163        C  0.02164992  0.20646450  0.71897902     0.76700
C164        C  0.41972163  0.35283781  0.71732387     0.76800
C165        C  0.46891706  0.27995941  0.81146530     0.76600
C166        C  0.47015911  0.27861617  0.61723989     0.76600
O167        O  0.50558484  0.35138736  0.96242465    -0.72500
O168        O  0.39474578  0.27787640  0.46919108    -0.72800
O169        O  0.45309001  0.31354922  0.53760425    -0.72600
O170        O  0.44813305  0.31348194  0.89113949    -0.72600
O171        O  0.48796579  0.24911919  0.89251448    -0.72600
O172        O  0.48594563  0.24503051  0.53691974    -0.72600
O173        O  0.43109080  0.21393661  0.96536274    -0.72500
O174        O  0.04221188  0.28270687  0.46839803    -0.72700
V175        V  0.45115980  0.31156031  0.46507152     1.34800
V176        V  0.48631350  0.24794147  0.46447560     1.35200
C177        C  0.04280283  0.32755184  0.46969967     0.76700
C178        C  0.39351445  0.23305727  0.47017771     0.76800
C179        C  0.46977646  0.27911549  0.56172040     0.76600
C180        C  0.46819135  0.28093223  0.86725906     0.76600
C181        C  0.01859648  0.01597393  0.81790055    -0.09900
C182        C  0.00665271  0.06351090  0.81368869     0.06300
C183        C  0.46146568  0.07520499  0.82652603    -0.03700
C184        C  0.42788890  0.04069700  0.82453176    -0.08100
C185        C  0.43990746  0.49371736  0.81448330     0.05400
C186        C  0.48591595  0.48036259  0.82077470    -0.03200
Br187      Br  0.50684241  0.41634454  0.82485820    -0.02900
H188        H  0.05385350  0.00529490  0.81618282     0.09300
H189        H  0.39266077  0.05150889  0.82525200     0.07300
Br190      Br  0.44262595  0.13882708  0.83941898    -0.03300
C191        C  0.17067298  0.26626809  0.07160689    -0.09900
C192        C  0.18192565  0.31243039  0.56842558     0.06300
C193        C  0.22717814  0.32588231  0.57883319    -0.03700
C194        C  0.26145252  0.29224096  0.57508609    -0.08100
C195        C  0.25057362  0.24519661  0.56454117     0.05400
C196        C  0.20471368  0.23238966  0.07082436    -0.03200
Br197      Br  0.18462052  0.16801404  0.07373610    -0.02900
H198        H  0.13566628  0.25496104  0.06853067     0.09300
H199        H  0.29645624  0.30366660  0.57595691     0.07300
Br200      Br  0.24473238  0.38940242  0.59444966    -0.03300
C201        C  0.28396040  0.71765290  0.03658757     0.79500
N202        N  0.32294639  0.73361754  0.51824600    -0.78800
C203        C  0.34999205  0.70862877  0.48588091     0.81900
N204        N  0.33639849  0.66388093  0.47069906    -0.78800
C205        C  0.29558030  0.64909609  0.98754992     0.82000
N206        N  0.27095749  0.67519685  0.02008069    -0.80500
C207        C  0.40630050  0.96734570  0.28481046     0.79500
N208        N  0.42043963  0.92603434  0.26615475    -0.78800
C209        C  0.39494508  0.89932539  0.23462416     0.81900
N210        N  0.35234549  0.91517661  0.22021509    -0.78800
C211        C  0.33791506  0.95871089  0.23797344     0.82000
N212        N  0.36543537  0.98378429  0.26966175    -0.80500
C213        C  0.15122877  0.84535695  0.03966819     0.79500
N214        N  0.16725360  0.88650508  0.02209254    -0.78800
C215        C  0.14424533  0.91335735  0.98823284     0.81900
N216        N  0.10252724  0.89779129  0.97019629    -0.78800
C217        C  0.08642253  0.85435603  0.98663428     0.82000
N218        N  0.11140841  0.82921368  0.02085247    -0.80500
O219        O  0.14684828  0.53697350  0.22085522    -0.72500
O220        O  0.25641652  0.96267165  0.22034722    -0.72800
O221        O  0.20120473  0.49887099  0.29201930    -0.72600
O222        O  0.20075716  0.50024480  0.14704576    -0.72600
O223        O  0.24053083  0.56467131  0.14737903    -0.72600
O224        O  0.23944299  0.56431612  0.29296763    -0.72600
O225        O  0.29421951  0.52774437  0.22186039    -0.72500
O226        O  0.18524122  0.60207375  0.22023632    -0.72700
V227        V  0.20215292  0.00108650  0.22003565     1.35200
V228        V  0.23923463  0.56336446  0.22019700     1.35200
C229        C  0.14713619  0.58174776  0.22331523     0.76700
C230        C  0.29444948  0.98319786  0.22401000     0.76800
C231        C  0.22033036  0.53124042  0.31697253     0.76600
C232        C  0.22074798  0.53239549  0.12265322     0.76600
O233        O  0.15200835  0.49746576  0.96987624    -0.72500
O234        O  0.22827671  0.60428508  0.47075975    -0.72800
O235        O  0.18990358  0.55133761  0.39727515    -0.72600
O236        O  0.19048337  0.55323763  0.04179416    -0.72600
O237        O  0.25113511  0.50984057  0.04274198    -0.72600
O238        O  0.25038039  0.50759623  0.39671706    -0.72600
O239        O  0.28970501  0.56455793  0.97037555    -0.72500
O240        O  0.21238432  0.95247164  0.46967046    -0.72700
V241        V  0.19172260  0.55169589  0.96906617     1.35200
V242        V  0.25000759  0.51015390  0.96998459     1.35200
C243        C  0.16951492  0.95704894  0.97309876     0.76700
C244        C  0.27152935  0.60492007  0.97196182     0.76800
C245        C  0.22029812  0.53015705  0.37254288     0.76600
C246        C  0.22090548  0.53197462  0.06684257     0.76600
C247        C  0.03815622  0.59720100  0.28890926     0.79500
N248        N  0.02174658  0.63745397  0.26918217    -0.78800
C249        C  0.04530673  0.66392814  0.23555837     0.81900
N250        N  0.08776040  0.64877001  0.21991515    -0.78800
C251        C  0.10415931  0.60626785  0.23869816     0.82000
N252        N  0.07883921  0.58168789  0.27266511    -0.80500
O253        O  0.03788051  0.74749321  0.21547473    -0.72500
O254        O  0.46196621  0.85776248  0.21532214    -0.72800
O255        O  0.49962945  0.80273870  0.28729401    -0.72600
O256        O  0.49998537  0.80488434  0.14176418    -0.72600
O257        O  0.43959728  0.76097585  0.14094750    -0.72600
O258        O  0.43893848  0.75941031  0.28605459    -0.72600
O259        O  0.40084931  0.81535464  0.21443453    -0.72500
O260        O  0.47795660  0.70593603  0.21373881    -0.72700
V261        V  0.99797633  0.80147531  0.21479034     1.35200
V262        V  0.44065188  0.76107699  0.21339725     1.35200
C263        C  0.02013045  0.70702237  0.21833647     0.76700
C264        C  0.41900069  0.85565196  0.21782568     0.76800
C265        C  0.46896412  0.78097762  0.31130467     0.76600
C266        C  0.46958542  0.78346294  0.11691854     0.76600
O267        O  0.50637296  0.84805415  0.46328272    -0.72500
O268        O  0.39442363  0.78013948  0.96806393    -0.72800
O269        O  0.45186997  0.81736316  0.03667074    -0.72600
O270        O  0.44792889  0.81210813  0.39205000    -0.72600
O271        O  0.48825326  0.74809014  0.39175553    -0.72600
O272        O  0.48637770  0.74971867  0.03726794    -0.72600
O273        O  0.43052210  0.71151594  0.46340352    -0.72500
O274        O  0.04228654  0.78565423  0.96835006    -0.72700
V275        V  0.45053985  0.81432845  0.96405375     1.34800
V276        V  0.48637373  0.75108722  0.96492704     1.35200
C277        C  0.04317770  0.83047787  0.96976500     0.76700
C278        C  0.39361942  0.73536036  0.97024261     0.76800
C279        C  0.46942359  0.78373460  0.06141424     0.76600
C280        C  0.46834022  0.78041299  0.36726557     0.76600
C281        C  0.01924980  0.51737620  0.31920639    -0.09900
C282        C  0.00737130  0.56500976  0.31649988     0.06300
C283        C  0.45985221  0.57999026  0.32222743    -0.03700
C284        C  0.42649339  0.54538729  0.31962221    -0.08100
C285        C  0.43893847  0.99817143  0.31191954     0.05400
C286        C  0.48482742  0.98489720  0.31943677    -0.03200
Br287      Br  0.50596815  0.92095294  0.32353046    -0.02900
H288        H  0.05447833  0.50667981  0.31682593     0.09300
H289        H  0.39119938  0.55618216  0.31883513     0.07300
Br290      Br  0.43989597  0.64375955  0.33195401    -0.03300
C291        C  0.17073304  0.76453246  0.57160855    -0.09900
C292        C  0.18192434  0.81382204  0.06863463     0.06300
C293        C  0.22699282  0.82728461  0.07989786    -0.03700
C294        C  0.26143203  0.79385367  0.07580146    -0.08100
C295        C  0.25071579  0.74686861  0.06477558     0.05400
C296        C  0.20464562  0.73050579  0.57067871    -0.03200
Br297      Br  0.18404438  0.66626041  0.57279961    -0.02900
H298        H  0.13573429  0.75334218  0.56890936     0.09300
H299        H  0.29644987  0.80539743  0.07701515     0.07300
Br300      Br  0.24375468  0.89051200  0.09777736    -0.03300
C301        C  0.28381139  0.71539536  0.53679740     0.79500
N302        N  0.32327286  0.73586366  0.01850018    -0.78800
C303        C  0.35033094  0.71102521  0.98599372     0.81900
N304        N  0.33662688  0.66649029  0.97025806    -0.78800
C305        C  0.29556576  0.64637789  0.48855261     0.82000
N306        N  0.27101869  0.67264032  0.52102589    -0.80500
C307        C  0.40666413  0.96329622  0.78760524     0.79500
N308        N  0.42090549  0.92241540  0.76781299    -0.78800
C309        C  0.39556374  0.89651934  0.73530954     0.81900
N310        N  0.35305052  0.91273687  0.72113977    -0.78800
C311        C  0.33846335  0.95580817  0.74000070     0.82000
N312        N  0.36582685  0.98014720  0.77263031    -0.80500
C313        C  0.15106290  0.84353979  0.53916190     0.79500
N314        N  0.16697457  0.88457094  0.52121602    -0.78800
C315        C  0.14395690  0.91112286  0.48712164     0.81900
N316        N  0.10222676  0.89533584  0.46921710    -0.78800
C317        C  0.08616258  0.85197782  0.48609053     0.82000
N318        N  0.11123803  0.82717888  0.52053819    -0.80500
O319        O  0.14808518  0.53460945  0.72096123    -0.72500
O320        O  0.25702913  0.96017143  0.72187665    -0.72800
O321        O  0.20248334  0.49764225  0.79282116    -0.72600
O322        O  0.20191266  0.49660675  0.64777288    -0.72600
O323        O  0.24193599  0.56085096  0.64694679    -0.72600
O324        O  0.24059326  0.56317621  0.79242826    -0.72600
O325        O  0.29562083  0.52517998  0.72250596    -0.72500
O326        O  0.18646991  0.59966227  0.71888723    -0.72700
V327        V  0.20280664  0.99870303  0.72069193     1.35200
V328        V  0.24054424  0.56085840  0.71977447     1.35200
C329        C  0.14831866  0.57944478  0.72248104     0.76700
C330        C  0.29513376  0.98057733  0.72566557     0.76800
C331        C  0.22148780  0.53053431  0.81708164     0.76600
C332        C  0.22187012  0.52840186  0.62277751     0.76600
O333        O  0.15136212  0.49521907  0.46960639    -0.72500
O334        O  0.22852796  0.60683416  0.96905607    -0.72800
O335        O  0.19066779  0.55221440  0.89660012    -0.72600
O336        O  0.19051664  0.54945098  0.54252124    -0.72600
O337        O  0.25116776  0.50606664  0.54209140    -0.72600
O338        O  0.25142467  0.50887355  0.89747291    -0.72600
O339        O  0.28936527  0.56188450  0.47039594    -0.72500
O340        O  0.21259104  0.95481954  0.97107526    -0.72700
V341        V  0.19130649  0.54930529  0.46974761     1.35200
V342        V  0.24945904  0.50758389  0.46929275     1.35200
C343        C  0.16929925  0.95480830  0.47188706     0.76700
C344        C  0.27129660  0.60226307  0.47302204     0.76800
C345        C  0.22126390  0.53065274  0.87260020     0.76600
C346        C  0.22118994  0.52791817  0.56690829     0.76600
C347        C  0.03827781  0.59515257  0.78604945     0.79500
N348        N  0.02301367  0.63625218  0.76761947    -0.78800
C349        C  0.04726413  0.66317900  0.73522867     0.81900
N350        N  0.08965355  0.64763396  0.71954947    -0.78800
C351        C  0.10509848  0.60422465  0.73715654     0.82000
N352        N  0.07880850  0.57918199  0.76981353    -0.80500
O353        O  0.03956451  0.74721511  0.71614653    -0.72500
O354        O  0.46239859  0.85499651  0.71448237    -0.72800
O355        O  0.49986895  0.80097348  0.78700286    -0.72600
O356        O  0.50011962  0.80061609  0.64172191    -0.72600
O357        O  0.43968123  0.75678408  0.64164627    -0.72600
O358        O  0.43876378  0.75822985  0.78683900    -0.72600
O359        O  0.40111321  0.81283945  0.71417730    -0.72500
O360        O  0.47737686  0.70286955  0.71600491    -0.72700
V361        V  0.99913545  0.80089825  0.71398721     1.35200
V362        V  0.44054888  0.75831592  0.71419939     1.35200
C363        C  0.02207137  0.70659901  0.71881563     0.76700
C364        C  0.41943876  0.85305427  0.71748104     0.76800
C365        C  0.46888371  0.78025913  0.81146695     0.76600
C366        C  0.46977685  0.77881762  0.61722482     0.76600
O367        O  0.50566222  0.85152319  0.96238610    -0.72500
O368        O  0.39447568  0.77778156  0.46900112    -0.72800
O369        O  0.45271814  0.81362980  0.53747069    -0.72600
O370        O  0.44811171  0.81367318  0.89115750    -0.72600
O371        O  0.48814797  0.74944279  0.89245238    -0.72600
O372        O  0.48552869  0.74509035  0.53693438    -0.72600
O373        O  0.43114220  0.71411327  0.96505585    -0.72500
O374        O  0.04242157  0.78284917  0.46793575    -0.72700
V375        V  0.45086744  0.81153280  0.46491667     1.34800
V376        V  0.48607649  0.74795186  0.46447367     1.35200
C377        C  0.04297268  0.82769062  0.46937136     0.76700
C378        C  0.39328092  0.73295704  0.46995235     0.76800
C379        C  0.46936181  0.77921903  0.56167434     0.76600
C380        C  0.46825888  0.78121192  0.86724397     0.76600
C381        C  0.01847292  0.51575993  0.81693739    -0.09900
C382        C  0.00658368  0.56330765  0.81272361     0.06300
C383        C  0.46168303  0.57527575  0.82674983    -0.03700
C384        C  0.42817074  0.54071660  0.82417834    -0.08100
C385        C  0.43949963  0.99359911  0.81527476     0.05400
C386        C  0.48547747  0.98018584  0.82158562    -0.03200
Br387      Br  0.50613028  0.91613169  0.82650652    -0.02900
H388        H  0.05371047  0.50501887  0.81506343     0.09300
H389        H  0.39292273  0.55143353  0.82493594     0.07300
Br390      Br  0.44281890  0.63872441  0.84050627    -0.03300
C391        C  0.17087769  0.76603863  0.07148022    -0.09900
C392        C  0.18195302  0.81224401  0.56819895     0.06300
C393        C  0.22719598  0.82561603  0.57876677    -0.03700
C394        C  0.26142277  0.79191420  0.57512747    -0.08100
C395        C  0.25048222  0.74489600  0.56452498     0.05400
C396        C  0.20497163  0.73220978  0.07094251    -0.03200
Br397      Br  0.18506660  0.66779348  0.07428492    -0.02900
H398        H  0.13586858  0.75465846  0.06842675     0.09300
H399        H  0.29642882  0.80327304  0.57608475     0.07300
Br400      Br  0.24482302  0.88909927  0.59446424    -0.03300
C401        C  0.78422260  0.21701423  0.03595986     0.79500
N402        N  0.82472229  0.23103665  0.52014777    -0.78800
C403        C  0.85084254  0.20664260  0.48641117     0.81900
N404        N  0.83628481  0.16263054  0.46993099    -0.78800
C405        C  0.79625333  0.14846800  0.98700030     0.82000
N406        N  0.77155027  0.17440593  0.01959806    -0.80500
C407        C  0.90660834  0.46631868  0.28411699     0.79500
N408        N  0.92013175  0.42468536  0.26587046    -0.78800
C409        C  0.89446642  0.39811630  0.23448097     0.81900
N410        N  0.85203714  0.41433515  0.21994741    -0.78800
C411        C  0.83799888  0.45814957  0.23737451     0.82000
N412        N  0.86588656  0.48324202  0.26883035    -0.80500
C413        C  0.65142008  0.34463406  0.03678966     0.79500
N414        N  0.66771347  0.38564572  0.01913598    -0.78800
C415        C  0.64473369  0.41273433  0.98545501     0.81900
N416        N  0.60280120  0.39746816  0.96761591    -0.78800
C417        C  0.58654397  0.35406346  0.98406602     0.82000
N418        N  0.61148419  0.32879664  0.01814714    -0.80500
O419        O  0.64661528  0.03624476  0.22023569    -0.72500
O420        O  0.75650018  0.46200795  0.21862604    -0.72800
O421        O  0.70149396  0.99792422  0.29090688    -0.72600
O422        O  0.70051757  0.99975211  0.14597026    -0.72600
O423        O  0.74098275  0.06370181  0.14635359    -0.72600
O424        O  0.73864684  0.06404693  0.29191032    -0.72600
O425        O  0.79420191  0.02742525  0.22180380    -0.72500
O426        O  0.68489545  0.10137455  0.21842486    -0.72700
V427        V  0.70196131  0.50018438  0.21850307     1.35200
V428        V  0.73904262  0.06280247  0.21919326     1.35200
C429        C  0.64679625  0.08108842  0.22204713     0.76700
C430        C  0.79443837  0.48265385  0.22328099     0.76800
C431        C  0.72015820  0.03056154  0.31585488     0.76600
C432        C  0.72096355  0.03159950  0.12157947     0.76600
O433        O  0.65244766  0.99692674  0.96819630    -0.72500
O434        O  0.72760228  0.10376047  0.46965758    -0.72800
O435        O  0.68966864  0.05061949  0.39591735    -0.72600
O436        O  0.69076955  0.05231566  0.04063223    -0.72600
O437        O  0.75159177  0.00919073  0.04159505    -0.72600
O438        O  0.75019990  0.00693694  0.39560512    -0.72600
O439        O  0.79029013  0.06391950  0.96924911    -0.72500
O440        O  0.71260090  0.45168637  0.46853375    -0.72700
V441        V  0.69224696  0.05114358  0.96789949     1.35200
V442        V  0.75047664  0.00953566  0.96876605     1.35200
C443        C  0.67010723  0.45654917  0.97074195     0.76700
C444        C  0.77216883  0.10430593  0.97117665     0.76800
C445        C  0.72012139  0.02944433  0.37134185     0.76600
C446        C  0.72123001  0.03115026  0.06571292     0.76600
C447        C  0.53756185  0.09834766  0.28730784     0.79500
N448        N  0.52209753  0.13902974  0.26787591    -0.78800
C449        C  0.54598483  0.16504619  0.23425516     0.81900
N450        N  0.58813250  0.14902828  0.21843350    -0.78800
C451        C  0.60374069  0.10604292  0.23698625     0.82000
N452        N  0.57787635  0.08185713  0.27084775    -0.80500
O453        O  0.53872701  0.24892517  0.21507264    -0.72500
O454        O  0.96139983  0.35640668  0.21536287    -0.72800
O455        O  0.99908948  0.30184113  0.28773721    -0.72600
O456        O  0.99962174  0.30323657  0.14239033    -0.72600
O457        O  0.93926043  0.25929308  0.14158016    -0.72600
O458        O  0.93837184  0.25852847  0.28682793    -0.72600
O459        O  0.90027742  0.31401474  0.21471224    -0.72500
O460        O  0.97734974  0.20457235  0.21516858    -0.72700
V461        V  0.49868425  0.30288221  0.21444512     1.35200
V462        V  0.94011761  0.25974636  0.21414282     1.35200
C463        C  0.52102682  0.20838370  0.21716939     0.76700
C464        C  0.91842510  0.35432610  0.21783528     0.76800
C465        C  0.96848194  0.28019115  0.31187981     0.76600
C466        C  0.96924870  0.28183439  0.11753415     0.76600
O467        O  0.00511569  0.34845698  0.46407594    -0.72500
O468        O  0.89461440  0.28021913  0.96822034    -0.72800
O469        O  0.95174347  0.31659363  0.03763247    -0.72600
O470        O  0.94743897  0.31142750  0.39244820    -0.72600
O471        O  0.98859985  0.24797721  0.39227328    -0.72600
O472        O  0.98618561  0.24892049  0.03742086    -0.72600
O473        O  0.93141451  0.21045521  0.46383964    -0.72500
O474        O  0.54226240  0.28537297  0.96676708    -0.72700
V475        V  0.95071159  0.31452514  0.96493187     1.34800
V476        V  0.98662153  0.25134304  0.96507967     1.35200
C477        C  0.54314153  0.33021015  0.96771076     0.76700
C478        C  0.89386403  0.23541195  0.96978360     0.76800
C479        C  0.96907668  0.28259176  0.06199295     0.76600
C480        C  0.96811405  0.27987799  0.36775902     0.76600
C481        C  0.51802511  0.01967329  0.32060232    -0.09900
C482        C  0.50606382  0.06712013  0.31520523     0.06300
C483        C  0.96179188  0.07747801  0.32608195    -0.03700
C484        C  0.92809786  0.04323918  0.32191721    -0.08100
C485        C  0.93988645  0.49648847  0.31126862     0.05400
C486        C  0.98590394  0.48280082  0.31735520    -0.03200
Br487      Br  0.00721962  0.41879931  0.31886575    -0.02900
H488        H  0.55334468  0.00904565  0.31965091     0.09300
H489        H  0.89287093  0.05411841  0.32276675     0.07300
Br490      Br  0.94351723  0.14063081  0.34206701    -0.03300
C491        C  0.67326038  0.26283575  0.57128394    -0.09900
C492        C  0.68172792  0.31295850  0.06600200     0.06300
C493        C  0.72650413  0.32646841  0.07841985    -0.03700
C494        C  0.76108998  0.29311575  0.07503059    -0.08100
C495        C  0.75061796  0.24611036  0.06373030     0.05400
C496        C  0.70719135  0.22881812  0.57369494    -0.03200
Br497      Br  0.68758294  0.16459432  0.58116388    -0.02900
H498        H  0.63823763  0.25152363  0.56869617     0.09300
H499        H  0.79603133  0.30469287  0.07707615     0.07300
Br500      Br  0.74250794  0.38963154  0.09735351    -0.03300
C501        C  0.78550263  0.21310170  0.53869683     0.79500
N502        N  0.82338582  0.23550490  0.01780731    -0.78800
C503        C  0.85061342  0.21082449  0.98533298     0.81900
N504        N  0.83716069  0.16617949  0.96959978    -0.78800
C505        C  0.79528707  0.14544168  0.48776864     0.82000
N506        N  0.77151135  0.17120519  0.52144528    -0.80500
C507        C  0.90603628  0.46413321  0.78331700     0.79500
N508        N  0.91977640  0.42271057  0.76474266    -0.78800
C509        C  0.89425198  0.39633783  0.73301613     0.81900
N510        N  0.85182466  0.41252950  0.71847330    -0.78800
C511        C  0.83767579  0.45614867  0.73630297     0.82000
N512        N  0.86534474  0.48100439  0.76806807    -0.80500
C513        C  0.65345717  0.34119078  0.53611038     0.79500
N514        N  0.66871494  0.38259027  0.51849482    -0.78800
C515        C  0.64490824  0.40948009  0.48542100     0.81900
N516        N  0.60302465  0.39371022  0.46827627    -0.78800
C517        C  0.58763847  0.34997823  0.48462502     0.82000
N518        N  0.61346549  0.32472123  0.51803392    -0.80500
O519        O  0.64700814  0.03347493  0.72132517    -0.72500
O520        O  0.75627546  0.46017307  0.71885219    -0.72800
O521        O  0.70302025  0.99664519  0.79169251    -0.72600
O522        O  0.70003932  0.99655932  0.64652794    -0.72600
O523        O  0.74043267  0.06055666  0.64552620    -0.72600
O524        O  0.73957624  0.06312031  0.79092551    -0.72600
O525        O  0.79446558  0.02543426  0.72064883    -0.72500
O526        O  0.68476156  0.09887833  0.71772459    -0.72700
V527        V  0.70199999  0.49843830  0.71914582     1.35200
V528        V  0.73918739  0.06065363  0.71829139     1.35200
C529        C  0.64689043  0.07829097  0.72248155     0.76700
C530        C  0.79426612  0.48074930  0.72244324     0.76800
C531        C  0.72155738  0.02995920  0.81578663     0.76600
C532        C  0.72028222  0.02813494  0.62145116     0.76600
O533        O  0.65119106  0.99404282  0.46788112    -0.72500
O534        O  0.72915402  0.10624578  0.96837246    -0.72800
O535        O  0.69135740  0.05204103  0.89544787    -0.72600
O536        O  0.68936142  0.04868358  0.54095119    -0.72600
O537        O  0.75044725  0.00594599  0.54105750    -0.72600
O538        O  0.75180844  0.00825144  0.89617441    -0.72600
O539        O  0.78875890  0.06142916  0.46912277    -0.72500
O540        O  0.71321170  0.45436525  0.96910727    -0.72700
V541        V  0.69074221  0.04853590  0.46828983     1.35200
V542        V  0.74912807  0.00714247  0.46818137     1.35200
C543        C  0.66954831  0.45356098  0.47041413     0.76700
C544        C  0.77066887  0.10173217  0.47183322     0.76800
C545        C  0.72170114  0.03019881  0.87135325     0.76600
C546        C  0.72001519  0.02744764  0.56559890     0.76600
C547        C  0.53769975  0.09400636  0.78808913     0.79500
N548        N  0.52170857  0.13460751  0.76880531    -0.78800
C549        C  0.54545944  0.16114406  0.73542770     0.81900
N550        N  0.58776441  0.14567995  0.71958169    -0.78800
C551        C  0.60376857  0.10278556  0.73780251     0.82000
N552        N  0.57818847  0.07812399  0.77154116    -0.80500
O553        O  0.53866095  0.24496444  0.71548905    -0.72500
O554        O  0.96127449  0.35529366  0.71297671    -0.72800
O555        O  0.99951915  0.30302708  0.78682552    -0.72600
O556        O  0.99988321  0.30069316  0.64154553    -0.72600
O557        O  0.93967940  0.25649623  0.64206613    -0.72600
O558        O  0.93941089  0.25883359  0.78726684    -0.72600
O559        O  0.90055454  0.31228153  0.71415447    -0.72500
O560        O  0.97860758  0.20376023  0.71631197    -0.72700
V561        V  0.49919438  0.29939563  0.71433408     1.35200
V562        V  0.94087826  0.25847514  0.71454204     1.35200
C563        C  0.52057710  0.20464900  0.71868553     0.76700
C564        C  0.91835483  0.35279950  0.71613008     0.76800
C565        C  0.96908337  0.28176062  0.81165208     0.76600
C566        C  0.96957254  0.27856325  0.61739429     0.76600
O567        O  0.00580032  0.35179594  0.96410953    -0.72500
O568        O  0.89435847  0.27615285  0.46891366    -0.72800
O569        O  0.95165561  0.31283160  0.53776235    -0.72600
O570        O  0.94854312  0.31479691  0.89190306    -0.72600
O571        O  0.98874832  0.25069315  0.89252725    -0.72600
O572        O  0.98588582  0.24503148  0.53730877    -0.72600
O573        O  0.93142219  0.21429809  0.96427320    -0.72500
O574        O  0.54265784  0.28158042  0.46770650    -0.72700
V575        V  0.95018346  0.31086313  0.46526064     1.34800
V576        V  0.98642947  0.24790395  0.46492486     1.35200
C577        C  0.54398616  0.32637842  0.46884680     0.76700
C578        C  0.89381383  0.23132960  0.47005221     0.76800
C579        C  0.96896360  0.27878540  0.56195962     0.76600
C580        C  0.96878244  0.28261590  0.86758857     0.76600
C581        C  0.51885169  0.01483764  0.82113944    -0.09900
C582        C  0.50684548  0.06236803  0.81646807     0.06300
C583        C  0.96100193  0.07628221  0.82242625    -0.03700
C584        C  0.92757464  0.04173306  0.81967867    -0.08100
C585        C  0.93917176  0.49459104  0.81007247     0.05400
C586        C  0.98518017  0.48112523  0.81624061    -0.03200
Br587      Br  0.00645626  0.41718248  0.81909711    -0.02900
H588        H  0.55403950  0.00409736  0.81883816     0.09300
H589        H  0.89231234  0.05249370  0.81987118     0.07300
Br590      Br  0.94132342  0.13986374  0.83408906    -0.03300
C591        C  0.67066191  0.26515532  0.06842415    -0.09900
C592        C  0.68464656  0.31037360  0.56544021     0.06300
C593        C  0.72983954  0.32414093  0.57617512    -0.03700
C594        C  0.76392610  0.29018735  0.57549424    -0.08100
C595        C  0.75297840  0.24285637  0.56714524     0.05400
C596        C  0.70480048  0.23138681  0.06888292    -0.03200
Br597      Br  0.68494788  0.16694861  0.07222163    -0.02900
H598        H  0.63577237  0.25372854  0.06448762     0.09300
H599        H  0.79902414  0.30150462  0.57619982     0.07300
Br600      Br  0.74813660  0.38815694  0.58796889    -0.03300
C601        C  0.78386497  0.71724908  0.03596276     0.79500
N602        N  0.82489844  0.73098975  0.52009281    -0.78800
C603        C  0.85106343  0.70657390  0.48642879     0.81900
N604        N  0.83647842  0.66257814  0.46989807    -0.78800
C605        C  0.79594057  0.64869496  0.98702767     0.82000
N606        N  0.77123624  0.67461241  0.01964178    -0.80500
C607        C  0.90635028  0.96621083  0.28413236     0.79500
N608        N  0.91983268  0.92456123  0.26589474    -0.78800
C609        C  0.89414653  0.89802246  0.23449583     0.81900
N610        N  0.85174034  0.91428811  0.21994603    -0.78800
C611        C  0.83774594  0.95811041  0.23738883     0.82000
N612        N  0.86565101  0.98317093  0.26884356    -0.80500
C613        C  0.65115255  0.84475835  0.03756499     0.79500
N614        N  0.66758639  0.88570913  0.01986002    -0.78800
C615        C  0.64477701  0.91272738  0.98594151     0.81900
N616        N  0.60291366  0.89746198  0.96792497    -0.78800
C617        C  0.58651700  0.85415322  0.98445165     0.82000
N618        N  0.61126531  0.82894424  0.01876253    -0.80500
O619        O  0.64668668  0.53593098  0.22027831    -0.72500
O620        O  0.75625718  0.96210941  0.21876605    -0.72800
O621        O  0.70175191  0.49763048  0.29087288    -0.72600
O622        O  0.70057261  0.49959210  0.14592206    -0.72600
O623        O  0.74105694  0.56352745  0.14630664    -0.72600
O624        O  0.73860133  0.56393316  0.29187831    -0.72600
O625        O  0.79430284  0.52740164  0.22187440    -0.72500
O626        O  0.68484066  0.60113092  0.21824950    -0.72700
V627        V  0.70180956  0.00040195  0.21854536     1.35200
V628        V  0.73906660  0.56266107  0.21915182     1.35200
C629        C  0.64677090  0.58078782  0.22190799     0.76700
C630        C  0.79423929  0.98268045  0.22329566     0.76800
C631        C  0.72030276  0.53033348  0.31582899     0.76600
C632        C  0.72098254  0.53146264  0.12152672     0.76600
O633        O  0.65228579  0.49703107  0.96816503    -0.72500
O634        O  0.72770643  0.60371911  0.46954710    -0.72800
O635        O  0.68983719  0.55045412  0.39586776    -0.72600
O636        O  0.69069479  0.55236427  0.04065174    -0.72600
O637        O  0.75142806  0.50910459  0.04144002    -0.72600
O638        O  0.75032820  0.50671378  0.39565245    -0.72600
O639        O  0.79008102  0.56413808  0.96933907    -0.72500
O640        O  0.71237267  0.95176083  0.46823158    -0.72700
V641        V  0.69205657  0.55127022  0.96789815     1.35200
V642        V  0.75032402  0.50971641  0.96861994     1.35200
C643        C  0.67023605  0.95644207  0.97107608     0.76700
C644        C  0.77191542  0.60450527  0.97122616     0.76800
C645        C  0.72027109  0.52922106  0.37133301     0.76600
C646        C  0.72114529  0.53108884  0.06564940     0.76600
C647        C  0.53726748  0.59811133  0.28664074     0.79500
N648        N  0.52194994  0.63883248  0.26722169    -0.78800
C649        C  0.54593843  0.66485148  0.23373480     0.81900
N650        N  0.58812812  0.64879934  0.21805663    -0.78800
C651        C  0.60361540  0.60573816  0.23659185     0.82000
N652        N  0.57759201  0.58153689  0.27029978    -0.80500
O653        O  0.53878495  0.74877484  0.21456473    -0.72500
O654        O  0.96106622  0.85635916  0.21529342    -0.72800
O655        O  0.99888243  0.80182343  0.28759514    -0.72600
O656        O  0.99921853  0.80324645  0.14227666    -0.72600
O657        O  0.93892628  0.75919867  0.14154271    -0.72600
O658        O  0.93816234  0.75851128  0.28680016    -0.72600
O659        O  0.89996635  0.81393069  0.21468503    -0.72500
O660        O  0.97710977  0.70453475  0.21514817    -0.72700
V661        V  0.49881797  0.80280512  0.21436428     1.35200
V662        V  0.93984009  0.75968736  0.21410980     1.35200
C663        C  0.52101475  0.70827682  0.21680161     0.76700
C664        C  0.91809680  0.85425159  0.21779914     0.76800
C665        C  0.96831087  0.78017704  0.31179183     0.76600
C666        C  0.96884822  0.78180795  0.11746213     0.76600
O667        O  0.00524872  0.84856789  0.46393682    -0.72500
O668        O  0.89434151  0.78044273  0.96809359    -0.72800
O669        O  0.95149830  0.81665833  0.03755369    -0.72600
O670        O  0.94749666  0.81147371  0.39239556    -0.72600
O671        O  0.98855983  0.74795533  0.39212802    -0.72600
O672        O  0.98566619  0.74883444  0.03737594    -0.72600
O673        O  0.93168865  0.71045020  0.46399280    -0.72500
O674        O  0.54229983  0.78549404  0.96695356    -0.72700
V675        V  0.95053293  0.81459545  0.96484497     1.34800
V676        V  0.98629300  0.75132434  0.96505618     1.35200
C677        C  0.54318804  0.83032522  0.96786828     0.76700
C678        C  0.89349334  0.73563910  0.96964592     0.76800
C679        C  0.96865953  0.78256714  0.06192843     0.76600
C680        C  0.96805176  0.77987130  0.36766356     0.76600
C681        C  0.51751386  0.51963199  0.32034765    -0.09900
C682        C  0.50562612  0.56705319  0.31452567     0.06300
C683        C  0.96195184  0.57756817  0.32636990    -0.03700
C684        C  0.92828237  0.54331507  0.32207872    -0.08100
C685        C  0.93966615  0.99638147  0.31120820     0.05400
C686        C  0.98567371  0.98266973  0.31725402    -0.03200
Br687      Br  0.00693838  0.91865212  0.31885248    -0.02900
H688        H  0.55283394  0.50894451  0.31960477     0.09300
H689        H  0.89302301  0.55417283  0.32292722     0.07300
Br690      Br  0.94367368  0.64067189  0.34255079    -0.03300
C691        C  0.67333187  0.76287548  0.57078033    -0.09900
C692        C  0.68134552  0.81302299  0.06687479     0.06300
C693        C  0.72611433  0.82647424  0.07933238    -0.03700
C694        C  0.76073918  0.79319040  0.07552035    -0.08100
C695        C  0.75027082  0.74624039  0.06391303     0.05400
C696        C  0.70728180  0.72888961  0.57339510    -0.03200
Br697      Br  0.68775194  0.66467999  0.58122625    -0.02900
H698        H  0.63831183  0.75153429  0.56823451     0.09300
H699        H  0.79565647  0.80477707  0.07756061     0.07300
Br700      Br  0.74196455  0.88950003  0.09891970    -0.03300
C701        C  0.78560950  0.71311518  0.53851690     0.79500
N702        N  0.82298998  0.73579507  0.01773578    -0.78800
C703        C  0.85021431  0.71111826  0.98523071     0.81900
N704        N  0.83679959  0.66644854  0.96956514    -0.78800
C705        C  0.79540198  0.64545052  0.48760726     0.82000
N706        N  0.77158433  0.67125274  0.52120756    -0.80500
C707        C  0.90637962  0.96427190  0.78337104     0.79500
N708        N  0.92025134  0.92293188  0.76467017    -0.78800
C709        C  0.89477007  0.89654218  0.73290088     0.81900
N710        N  0.85230233  0.91264250  0.71841270    -0.78800
C711        C  0.83805486  0.95619815  0.73629911     0.82000
N712        N  0.86564805  0.98106473  0.76814220    -0.80500
C713        C  0.65339522  0.84119980  0.53559598     0.79500
N714        N  0.66858061  0.88261201  0.51798667    -0.78800
C715        C  0.64467239  0.90956566  0.48509453     0.81900
N716        N  0.60271181  0.89384327  0.46811430    -0.78800
C717        C  0.58737627  0.85007921  0.48446059     0.82000
N718        N  0.61333389  0.82476156  0.51769277    -0.80500
O719        O  0.64685954  0.53402280  0.72125019    -0.72500
O720        O  0.75665481  0.95997737  0.71878959    -0.72800
O721        O  0.70268415  0.49708394  0.79166812    -0.72600
O722        O  0.69985355  0.49689315  0.64652076    -0.72600
O723        O  0.74036181  0.56081278  0.64551492    -0.72600
O724        O  0.73954634  0.56337909  0.79089728    -0.72600
O725        O  0.79428701  0.52550713  0.72058654    -0.72500
O726        O  0.68479761  0.59931717  0.71778033    -0.72700
V727        V  0.70225828  0.99805811  0.71915905     1.35200
V728        V  0.73911869  0.56091543  0.71827481     1.35200
C729        C  0.64687103  0.57883297  0.72252885     0.76700
C730        C  0.79458006  0.98067714  0.72245158     0.76800
C731        C  0.72135076  0.53032387  0.81575190     0.76600
C732        C  0.72021262  0.52838830  0.62144674     0.76600
O733        O  0.65138181  0.49391030  0.46789859    -0.72500
O734        O  0.72890576  0.60640453  0.96836772    -0.72800
O735        O  0.69108407  0.55222183  0.89544386    -0.72600
O736        O  0.68939488  0.54872427  0.54086911    -0.72600
O737        O  0.75058165  0.50613985  0.54115475    -0.72600
O738        O  0.75171098  0.50869062  0.89605314    -0.72600
O739        O  0.78888525  0.56142431  0.46901908    -0.72500
O740        O  0.71333685  0.95420932  0.96954801    -0.72700
V741        V  0.69086857  0.54846003  0.46823191     1.35200
V742        V  0.74928486  0.50711369  0.46826002     1.35200
C743        C  0.66931787  0.95366966  0.47017783     0.76700
C744        C  0.77078134  0.60171934  0.47170242     0.76800
C745        C  0.72150991  0.53054529  0.87129873     0.76600
C746        C  0.72006253  0.52761105  0.56560332     0.76600
C747        C  0.53787689  0.59450817  0.78851161     0.79500
N748        N  0.52173700  0.63504419  0.76917642    -0.78800
C749        C  0.54539133  0.66158149  0.73568008     0.81900
N750        N  0.58769356  0.64617798  0.71975805    -0.78800
C751        C  0.60384207  0.60338256  0.73806355     0.82000
N752        N  0.57839272  0.57874140  0.77193027    -0.80500
O753        O  0.53846243  0.74532362  0.71547206    -0.72500
O754        O  0.96176054  0.85547574  0.71274457    -0.72800
O755        O  0.99971932  0.80328513  0.78683496    -0.72600
O756        O  0.00052469  0.80071180  0.64149605    -0.72600
O757        O  0.94008636  0.75686080  0.64192733    -0.72600
O758        O  0.93981941  0.75878866  0.78709008    -0.72600
O759        O  0.90103373  0.81247904  0.71417329    -0.72500
O760        O  0.97903524  0.70391914  0.71593082    -0.72700
V761        V  0.49894854  0.79970957  0.71427220     1.35200
V762        V  0.94131452  0.75864684  0.71438106     1.35200
C763        C  0.52042887  0.70499101  0.71879333     0.76700
C764        C  0.91885128  0.85299577  0.71602133     0.76800
C765        C  0.96930652  0.78187266  0.81157232     0.76600
C766        C  0.97011794  0.77874522  0.61729856     0.76600
O767        O  0.00569734  0.85172541  0.96409070    -0.72500
O768        O  0.89456400  0.77611321  0.46892440    -0.72800
O769        O  0.95193325  0.81288490  0.53768890    -0.72600
O770        O  0.94849111  0.81486724  0.89179207    -0.72600
O771        O  0.98863017  0.75072100  0.89251369    -0.72600
O772        O  0.98642953  0.74523123  0.53718619    -0.72600
O773        O  0.93100074  0.71443669  0.96407340    -0.72500
O774        O  0.54237563  0.78164710  0.46783664    -0.72700
V775        V  0.95035332  0.81090194  0.46519636     1.34800
V776        V  0.98666876  0.74798241  0.46478598     1.35200
C777        C  0.54368889  0.82644820  0.46881615     0.76700
C778        C  0.89405739  0.73128659  0.47012988     0.76800
C779        C  0.96947179  0.77895480  0.56186124     0.76600
C780        C  0.96880755  0.78270148  0.86752121     0.76600
C781        C  0.51919786  0.51510692  0.82092849    -0.09900
C782        C  0.50710567  0.56264736  0.81672342     0.06300
C783        C  0.96096814  0.57617259  0.82158856    -0.03700
C784        C  0.92749664  0.54165536  0.81919818    -0.08100
C785        C  0.93935742  0.99471330  0.81041964     0.05400
C786        C  0.98534586  0.98129116  0.81687754    -0.03200
Br787      Br  0.00664982  0.91736085  0.81972288    -0.02900
H788        H  0.55442142  0.50447378  0.81863390     0.09300
H789        H  0.89223908  0.55246387  0.81955132     0.07300
Br790      Br  0.94133389  0.63980808  0.83301924    -0.03300
C791        C  0.67030411  0.76520125  0.06904534    -0.09900
C792        C  0.68469418  0.81040372  0.56478615     0.06300
C793        C  0.72989710  0.82423189  0.57542975    -0.03700
C794        C  0.76398479  0.79028905  0.57496424    -0.08100
C795        C  0.75306336  0.74292720  0.56684172     0.05400
C796        C  0.70447272  0.73145359  0.06915802    -0.03200
Br797      Br  0.68465022  0.66698964  0.07221210    -0.02900
H798        H  0.63542978  0.75378388  0.06511814     0.09300
H799        H  0.79907856  0.80162498  0.57562669     0.07300
Br800      Br  0.74828283  0.88829242  0.58677840    -0.03300
loop_ 
_geom_bond_atom_site_label_1 
_geom_bond_atom_site_label_2 
_geom_bond_distance 
_geom_bond_site_symmetry_2 
_ccdc_geom_bond_type 
C1            N6   1.337       .  A
C1          N102   1.357       .  A
C1           C95   1.484       .  S
N2            C3   1.365       .  A
N2          C101   1.357       .  A
C3            N4   1.391       .  A
C3          C178   1.512       .  S
N4          C105   1.386       .  A
C5            N6   1.344   1_556  A
C5          N104   1.386       .  A
C5           C44   1.498       .  S
C7            N8   1.339       .  A
C7           N12   1.351       .  A
C7           C85   1.480       .  S
N8            C9   1.348       .  A
C9           N10   1.386       .  A
C9           C64   1.497       .  S
N10          C11   1.389       .  A
C11          N12   1.359       .  A
C11          C30   1.503       .  S
C13          N14   1.343       .  A
C13          N18   1.352       .  A
C13          C92   1.479       .  S
N14          C15   1.349   1_554  A
C15          N16   1.389       .  A
C15          C43   1.502       .  S
N16          C17   1.390       .  A
C17          N18   1.358   1_556  A
C17          C77   1.510       .  S
O19          C29   1.274       .  A
O19         V227   1.917       .  S
O20          C30   1.268       .  A
O20          V27   1.939       .  S
O21          C31   1.260   1_565  A
O21         V227   1.892   1_565  S
O22          C32   1.261       .  A
O22         V227   1.894       .  S
O23          C32   1.264       .  A
O23          V28   1.902       .  S
O24          C31   1.263       .  A
O24          V28   1.900       .  S
O25         C230   1.272   1_545  A
O25          V28   1.914       .  S
O26          C29   1.267       .  A
O26          V28   1.937       .  S
V27         O219   1.917       .  S
V27         O221   1.892       .  S
V27         O222   1.894       .  S
V27         V228   2.087       .  T
V28         V227   2.087       .  T
C29          C51   1.504       .  S
C30         O225   1.272       .  A
C31          C45   1.451       .  S
C32          C46   1.457       .  S
O33         C243   1.266       .  A
O33          V41   1.936   1_565  S
O34         C144   1.272       .  A
O34         V141   1.906       .  S
O35          C45   1.261       .  A
O35         V141   1.893       .  S
O36          C46   1.262       .  A
O36          V41   1.900   1_554  S
O37          C46   1.262       .  A
O37          V42   1.899   1_554  S
O38          C45   1.262       .  A
O38         V142   1.895       .  S
O39          C44   1.267       .  A
O39          V42   1.940       .  S
O40         C143   1.275       .  A
O40         V342   1.918       .  S
V41         O134   1.907       .  S
V41         O135   1.892       .  S
V41          V42   2.087       .  T
V42         O138   1.893       .  S
V42         O340   1.916   1_545  S
C43         O233   1.266       .  A
C43         O140   1.274       .  A
C44         O134   1.273       .  A
C47          N48   1.343       .  A
C47          N52   1.349       .  A
C47          C82   1.478       .  S
N48          C49   1.350       .  A
C49          N50   1.388       .  A
C49          C63   1.500       .  S
N50          C51   1.389       .  A
C51          N52   1.355       .  A
O53          C63   1.266       .  A
O53          V61   1.934   1_455  S
O54          C64   1.272       .  A
O54         V461   1.904       .  S
O55          C65   1.264       .  A
O55         V461   1.903       .  S
O56          C66   1.262       .  A
O56         V461   1.896       .  S
O57          C66   1.261       .  A
O57          V62   1.892       .  S
O58          C65   1.262       .  A
O58          V62   1.898       .  S
O59          C64   1.267       .  A
O59          V62   1.939       .  S
O60         C463   1.275       .  A
O60          V62   1.915       .  S
V61         O454   1.903       .  S
V61         O455   1.901       .  S
V61         O456   1.894       .  S
V61         V462   2.087       .  T
V62         V461   2.087       .  T
C63         O460   1.274   1_455  A
C65          C80   1.461       .  S
C66          C79   1.449       .  S
O67         C577   1.269       .  A
O67         V175   1.939       .  S
O68          C78   1.274       .  A
O68          V75   1.923       .  S
O69          C79   1.263       .  A
O69          V75   1.898   1_554  S
O70          C80   1.264       .  A
O70         V175   1.903       .  S
O71          C80   1.262       .  A
O71         V176   1.899       .  S
O72          C79   1.259       .  A
O72          V76   1.889   1_554  S
O73         C178   1.269       .  A
O73         V176   1.939       .  S
O74          C77   1.275       .  A
O74         V476   1.921   1_455  S
V75         O167   1.941       .  S
V75         O170   1.905       .  S
V75          V76   2.085       .  T
V76         O171   1.893       .  S
V76         O173   1.940       .  S
V76         O474   1.920       .  S
C77         O567   1.269       .  A
C78         C103   1.511       .  S
C78         O173   1.270       .  A
C81          C82   1.400       .  A
C81         C686   1.391   1_445  A
C81          H88   1.085       .  S
C82         C483   1.412   1_455  A
C83          C84   1.393       .  A
C83         C482   1.415       .  A
C83         Br90   1.923       .  S
C84         C285   1.403   1_545  A
C84          H89   1.086       .  S
C85          C86   1.419       .  A
C85         C284   1.402       .  A
C86         C681   1.392       .  A
C86         Br87   1.924       .  S
C91          C96   1.392       .  A
C91         C192   1.398       .  A
C91          H98   1.083       .  S
C92          C93   1.414       .  A
C92         C191   1.398       .  A
C93          C94   1.396       .  A
C93        Br100   1.921       .  S
C94          C95   1.402       .  A
C94          H99   1.084       .  S
C95         C196   1.423       .  A
C96         C195   1.423       .  A
C96         Br97   1.925       .  S
C101        N106   1.337       .  A
C101        C195   1.484       .  S
N102        C103   1.365   1_554  A
C103        N104   1.391       .  A
C105        N106   1.344       .  A
C105        C144   1.499       .  S
C107        N108   1.340       .  A
C107        N112   1.353       .  A
C107        C185   1.483       .  S
N108        C109   1.348       .  A
C109        N110   1.386       .  A
C109        C164   1.498       .  S
N110        C111   1.389       .  A
C111        N112   1.361       .  A
C111        C130   1.506       .  S
C113        N114   1.341       .  A
C113        N118   1.353       .  A
C113        C192   1.480       .  S
N114        C115   1.348       .  A
C115        N116   1.390       .  A
C115        C143   1.503       .  S
N116        C117   1.392       .  A
C117        N118   1.359       .  A
C117        C177   1.513       .  S
O119        C129   1.275       .  A
O119        V327   1.919   1_545  S
O120        C130   1.269       .  A
O120        V127   1.940       .  S
O121        C131   1.260   1_565  A
O121        V327   1.892       .  S
O122        C132   1.261   1_565  A
O122        V327   1.896       .  S
O123        C132   1.264       .  A
O123        V128   1.902       .  S
O124        C131   1.262       .  A
O124        V128   1.897       .  S
O125        C330   1.273   1_545  A
O125        V128   1.917       .  S
O126        C129   1.268       .  A
O126        V128   1.940       .  S
V127        O319   1.919       .  S
V127        O321   1.892       .  S
V127        O322   1.896       .  S
V127        V328   2.086       .  T
V128        V327   2.086   1_545  T
C129        C151   1.508       .  S
C130        O325   1.273       .  A
C131        C145   1.449       .  S
C132        C146   1.458       .  S
O133        C343   1.266       .  A
O133        V141   1.937   1_565  S
O135        C145   1.261       .  A
O136        C146   1.262       .  A
O136        V141   1.900       .  S
O137        C146   1.263       .  A
O137        V142   1.901       .  S
O138        C145   1.261       .  A
O139        C144   1.267       .  A
O139        V142   1.941       .  S
O140        V242   1.916       .  S
V141        V142   2.086       .  T
V142        O240   1.918   1_545  S
C143        O333   1.266       .  A
C147        N148   1.340       .  A
C147        N152   1.350       .  A
C147        C182   1.478       .  S
N148        C149   1.348       .  A
C149        N150   1.390       .  A
C149        C163   1.502       .  S
N150        C151   1.392       .  A
C151        N152   1.356       .  A
O153        C163   1.266       .  A
O153        V161   1.938   1_455  S
O154        C164   1.272       .  A
O154        V561   1.906       .  S
O155        C165   1.263       .  A
O155        V561   1.899       .  S
O156        C166   1.261       .  A
O156        V561   1.894       .  S
O157        C166   1.261       .  A
O157        V162   1.894       .  S
O158        C165   1.262       .  A
O158        V162   1.897       .  S
O159        C164   1.267       .  A
O159        V162   1.938       .  S
O160        C563   1.274       .  A
O160        V162   1.915       .  S
V161        O554   1.903       .  S
V161        O555   1.902       .  S
V161        O556   1.892       .  S
V161        V562   2.087       .  T
V162        V561   2.087       .  T
C163        O560   1.274   1_455  A
C165        C180   1.457       .  S
C166        C179   1.449       .  S
O167        C477   1.268       .  A
O168        C178   1.274       .  A
O168        V175   1.924       .  S
O169        C179   1.262       .  A
O169        V175   1.895       .  S
O170        C180   1.265       .  A
O171        C180   1.260       .  A
O172        C179   1.261       .  A
O172        V176   1.893       .  S
O174        C177   1.275       .  A
O174        V576   1.923   1_455  S
V175        V176   2.085       .  T
V176        O574   1.920       .  S
C177        O467   1.269       .  A
C181        C182   1.400       .  A
C181        C786   1.391   1_445  A
C181        H188   1.085       .  S
C182        C583   1.415   1_455  A
C183        C582   1.414       .  A
C183        C184   1.395       .  A
C183       Br190   1.922       .  S
C184        C385   1.403   1_545  A
C184        H189   1.085       .  S
C185        C384   1.403       .  A
C185        C186   1.419       .  A
C186        C781   1.393       .  A
C186       Br187   1.924       .  S
C191        C196   1.392       .  A
C191        H198   1.085       .  S
C192        C193   1.415       .  A
C193        C194   1.396       .  A
C193       Br200   1.922       .  S
C194        C195   1.402       .  A
C194        H199   1.083       .  S
C196       Br197   1.924       .  S
C201        N302   1.357       .  A
C201        N206   1.337       .  A
C201        C295   1.484       .  S
N202        C301   1.357       .  A
N202        C203   1.365       .  A
C203        N204   1.391       .  A
C203        C378   1.512       .  S
N204        C305   1.386       .  A
C205        N304   1.386       .  A
C205        N206   1.344   1_556  A
C205        C244   1.498       .  S
C207        N208   1.339       .  A
C207        N212   1.351       .  A
C207        C285   1.481       .  S
N208        C209   1.348       .  A
C209        N210   1.386       .  A
C209        C264   1.497       .  S
N210        C211   1.389       .  A
C211        N212   1.359       .  A
C211        C230   1.503       .  S
C213        N214   1.342       .  A
C213        N218   1.352       .  A
C213        C292   1.479       .  S
N214        C215   1.348   1_554  A
C215        N216   1.389       .  A
C215        C243   1.502       .  S
N216        C217   1.391       .  A
C217        N218   1.358   1_556  A
C217        C277   1.510       .  S
O219        C229   1.274       .  A
O220        C230   1.268       .  A
O220        V227   1.938   1_565  S
O221        C231   1.260       .  A
O222        C232   1.261       .  A
O223        C232   1.264       .  A
O223        V228   1.902       .  S
O224        C231   1.263       .  A
O224        V228   1.900       .  S
O225        V228   1.913       .  S
O226        C229   1.267       .  A
O226        V228   1.937       .  S
C229        C251   1.504       .  S
C231        C245   1.451       .  S
C232        C246   1.457       .  S
O233        V241   1.936       .  S
O234        C344   1.272       .  A
O234        V341   1.906       .  S
O235        C245   1.261       .  A
O235        V341   1.893       .  S
O236        C246   1.262       .  A
O236        V241   1.899   1_554  S
O237        C246   1.262       .  A
O237        V242   1.899   1_554  S
O238        C245   1.262       .  A
O238        V342   1.895       .  S
O239        C244   1.267       .  A
O239        V242   1.940       .  S
O240        C343   1.275       .  A
V241        O334   1.906       .  S
V241        O335   1.892       .  S
V241        V242   2.087       .  T
V242        O338   1.894       .  S
C243        O340   1.274       .  A
C244        O334   1.272       .  A
C247        N248   1.343       .  A
C247        N252   1.349       .  A
C247        C282   1.478       .  S
N248        C249   1.350       .  A
C249        N250   1.388       .  A
C249        C263   1.500       .  S
N250        C251   1.389       .  A
C251        N252   1.355       .  A
O253        C263   1.266       .  A
O253        V261   1.934   1_455  S
O254        C264   1.272       .  A
O254        V661   1.904       .  S
O255        C265   1.264       .  A
O255        V661   1.904       .  S
O256        C266   1.262       .  A
O256        V661   1.896       .  S
O257        C266   1.260       .  A
O257        V262   1.891       .  S
O258        C265   1.262       .  A
O258        V262   1.898       .  S
O259        C264   1.267       .  A
O259        V262   1.939       .  S
O260        C663   1.275       .  A
O260        V262   1.915       .  S
V261        O654   1.903       .  S
V261        O655   1.901       .  S
V261        O656   1.894       .  S
V261        V662   2.087       .  T
V262        V661   2.087       .  T
C263        O660   1.274   1_455  A
C265        C280   1.461       .  S
C266        C279   1.449       .  S
O267        C777   1.269       .  A
O267        V375   1.940       .  S
O268        C278   1.274       .  A
O268        V275   1.923       .  S
O269        C279   1.263       .  A
O269        V275   1.898   1_554  S
O270        C280   1.264       .  A
O270        V375   1.904       .  S
O271        C280   1.262       .  A
O271        V376   1.899       .  S
O272        C279   1.260       .  A
O272        V276   1.889   1_554  S
O273        C378   1.269       .  A
O273        V376   1.939       .  S
O274        C277   1.275       .  A
O274        V676   1.921   1_455  S
V275        O367   1.941       .  S
V275        O370   1.904       .  S
V275        V276   2.085       .  T
V276        O371   1.893       .  S
V276        O373   1.939       .  S
V276        O674   1.919       .  S
C277        O767   1.269       .  A
C278        C303   1.511       .  S
C278        O373   1.269       .  A
C281        C282   1.400       .  A
C281        C486   1.391   1_455  A
C281        H288   1.085       .  S
C282        C683   1.412   1_455  A
C283        C682   1.416       .  A
C283        C284   1.393       .  A
C283       Br290   1.923       .  S
C284        H289   1.086       .  S
C285        C286   1.419       .  A
C286        C481   1.392   1_565  A
C286       Br287   1.924       .  S
C291        C392   1.398       .  A
C291        C296   1.392       .  A
C291        H298   1.083       .  S
C292        C391   1.398       .  A
C292        C293   1.414       .  A
C293        C294   1.396       .  A
C293       Br300   1.921       .  S
C294        C295   1.402       .  A
C294        H299   1.085       .  S
C295        C396   1.423       .  A
C296        C395   1.423       .  A
C296       Br297   1.925       .  S
C301        N306   1.337       .  A
C301        C395   1.484       .  S
N302        C303   1.365   1_554  A
C303        N304   1.391       .  A
C305        N306   1.344       .  A
C305        C344   1.499       .  S
C307        N308   1.340       .  A
C307        N312   1.353       .  A
C307        C385   1.483       .  S
N308        C309   1.348       .  A
C309        N310   1.386       .  A
C309        C364   1.498       .  S
N310        C311   1.389       .  A
C311        N312   1.361       .  A
C311        C330   1.506       .  S
C313        N314   1.342       .  A
C313        N318   1.353       .  A
C313        C392   1.480       .  S
N314        C315   1.348       .  A
C315        N316   1.390       .  A
C315        C343   1.503       .  S
N316        C317   1.392       .  A
C317        N318   1.359       .  A
C317        C377   1.513       .  S
O319        C329   1.275       .  A
O320        C330   1.269       .  A
O320        V327   1.939       .  S
O321        C331   1.260       .  A
O322        C332   1.261       .  A
O323        C332   1.264       .  A
O323        V328   1.902       .  S
O324        C331   1.262       .  A
O324        V328   1.898       .  S
O325        V328   1.917       .  S
O326        C329   1.268       .  A
O326        V328   1.940       .  S
C329        C351   1.508       .  S
C331        C345   1.449       .  S
C332        C346   1.458       .  S
O333        V341   1.937       .  S
O335        C345   1.261       .  A
O336        C346   1.262       .  A
O336        V341   1.900       .  S
O337        C346   1.263       .  A
O337        V342   1.901       .  S
O338        C345   1.262       .  A
O339        C344   1.267       .  A
O339        V342   1.941       .  S
V341        V342   2.086       .  T
C347        N348   1.340       .  A
C347        N352   1.350       .  A
C347        C382   1.477       .  S
N348        C349   1.348       .  A
C349        N350   1.390       .  A
C349        C363   1.502       .  S
N350        C351   1.392       .  A
C351        N352   1.356       .  A
O353        C363   1.266       .  A
O353        V361   1.938   1_455  S
O354        C364   1.272       .  A
O354        V761   1.906       .  S
O355        C365   1.263       .  A
O355        V761   1.899       .  S
O356        C366   1.261       .  A
O356        V761   1.894       .  S
O357        C366   1.261       .  A
O357        V362   1.894       .  S
O358        C365   1.262       .  A
O358        V362   1.897       .  S
O359        C364   1.267       .  A
O359        V362   1.938       .  S
O360        C763   1.274       .  A
O360        V362   1.915       .  S
V361        O754   1.904       .  S
V361        O755   1.903       .  S
V361        O756   1.893   1_655  S
V361        V762   2.087       .  T
V362        V761   2.087       .  T
C363        O760   1.275   1_455  A
C365        C380   1.456       .  S
C366        C379   1.450       .  S
O367        C677   1.268       .  A
O368        C378   1.274       .  A
O368        V375   1.924       .  S
O369        C379   1.262       .  A
O369        V375   1.895       .  S
O370        C380   1.264       .  A
O371        C380   1.260       .  A
O372        C379   1.261       .  A
O372        V376   1.893       .  S
O374        C377   1.275       .  A
O374        V776   1.922   1_455  S
V375        V376   2.085       .  T
V376        O774   1.920       .  S
C377        O667   1.269       .  A
C381        C382   1.400       .  A
C381        C586   1.391   1_455  A
C381        H388   1.085       .  S
C382        C783   1.415   1_455  A
C383        C782   1.414       .  A
C383        C384   1.395       .  A
C383       Br390   1.922       .  S
C384        H389   1.084       .  S
C385        C386   1.419       .  A
C386        C581   1.393   1_565  A
C386       Br387   1.924       .  S
C391        C396   1.392       .  A
C391        H398   1.085       .  S
C392        C393   1.415       .  A
C393        C394   1.396       .  A
C393       Br400   1.922       .  S
C394        C395   1.402       .  A
C394        H399   1.083       .  S
C396       Br397   1.924       .  S
C401        N502   1.357       .  A
C401        N406   1.337       .  A
C401        C495   1.484       .  S
N402        C501   1.356       .  A
N402        C403   1.363       .  A
C403        N404   1.391       .  A
C403        C578   1.512       .  S
N404        C505   1.387       .  A
C405        N504   1.386       .  A
C405        N406   1.344   1_556  A
C405        C444   1.500       .  S
C407        N408   1.338       .  A
C407        N412   1.353       .  A
C407        C485   1.482       .  S
N408        C409   1.346       .  A
C409        N410   1.386       .  A
C409        C464   1.497       .  S
N410        C411   1.390       .  A
C411        N412   1.362       .  A
C411        C430   1.506       .  S
C413        N414   1.342       .  A
C413        N418   1.351       .  A
C413        C492   1.478       .  S
N414        C415   1.349   1_554  A
C415        N416   1.390       .  A
C415        C443   1.503       .  S
N416        C417   1.391       .  A
C417        N418   1.357   1_556  A
C417        C477   1.510       .  S
O419        C429   1.275       .  A
O419        V627   1.922       .  S
O420        C430   1.270       .  A
O420        V427   1.941       .  S
O421        C431   1.259   1_565  A
O421        V627   1.890   1_565  S
O422        C432   1.261   1_565  A
O422        V627   1.895   1_565  S
O423        C432   1.264       .  A
O423        V428   1.903       .  S
O424        C431   1.263       .  A
O424        V428   1.899       .  S
O425        C630   1.272   1_545  A
O425        V428   1.915       .  S
O426        C429   1.268       .  A
O426        V428   1.938       .  S
V427        O619   1.923       .  S
V427        O621   1.890       .  S
V427        O622   1.895       .  S
V427        V628   2.086       .  T
V428        V627   2.086       .  T
C429        C451   1.508       .  S
C430        O625   1.272       .  A
C431        C445   1.449       .  S
C432        C446   1.458       .  S
O433        C643   1.267       .  A
O433        V441   1.937   1_565  S
O434        C544   1.274       .  A
O434        V541   1.910       .  S
O435        C445   1.260       .  A
O435        V541   1.890       .  S
O436        C446   1.262       .  A
O436        V441   1.900   1_554  S
O437        C446   1.263       .  A
O437        V442   1.901   1_554  S
O438        C445   1.262       .  A
O438        V542   1.895       .  S
O439        C444   1.267       .  A
O439        V442   1.941       .  S
O440        C543   1.273       .  A
O440        V742   1.911       .  S
V441        O534   1.907       .  S
V441        O535   1.891       .  S
V441        V442   2.086       .  T
V442        O538   1.896       .  S
V442        O740   1.917   1_545  S
C443        O633   1.267       .  A
C443        O540   1.275       .  A
C444        O534   1.273       .  A
C447        N448   1.341       .  A
C447        N452   1.351       .  A
C447        C482   1.478       .  S
N448        C449   1.348       .  A
C449        N450   1.389       .  A
C449        C463   1.501       .  S
N450        C451   1.391       .  A
C451        N452   1.357       .  A
O453        C463   1.266       .  A
O453        V461   1.936       .  S
O454        C464   1.272       .  A
O455        C465   1.263       .  A
O456        C466   1.261       .  A
O457        C466   1.261       .  A
O457        V462   1.894       .  S
O458        C465   1.262       .  A
O458        V462   1.898       .  S
O459        C464   1.267       .  A
O459        V462   1.940       .  S
O460        V462   1.915       .  S
C465        C480   1.459       .  S
C466        C479   1.450       .  S
O467        V575   1.942   1_455  S
O468        C478   1.274       .  A
O468        V475   1.924       .  S
O469        C479   1.263       .  A
O469        V475   1.899   1_554  S
O470        C480   1.264       .  A
O470        V575   1.902       .  S
O471        C480   1.262       .  A
O471        V576   1.898       .  S
O472        C479   1.260       .  A
O472        V476   1.890   1_554  S
O473        C578   1.270       .  A
O473        V576   1.942       .  S
O474        C477   1.275       .  A
V475        O567   1.941   1_655  S
V475        O570   1.907       .  S
V475        V476   2.085       .  T
V476        O571   1.895       .  S
V476        O573   1.940       .  S
C478        C503   1.512       .  S
C478        O573   1.269       .  A
C481        C482   1.401       .  A
C481        H488   1.086       .  S
C483        C484   1.395       .  A
C483       Br490   1.921       .  S
C484        C685   1.403   1_545  A
C484        H489   1.085       .  S
C485        C684   1.403       .  A
C485        C486   1.421       .  A
C486       Br487   1.925   1_655  S
C491        C592   1.400       .  A
C491        C496   1.393       .  A
C491        H498   1.084       .  S
C492        C591   1.398       .  A
C492        C493   1.413       .  A
C493        C494   1.396       .  A
C493       Br500   1.921       .  S
C494        C495   1.402       .  A
C494        H499   1.084       .  S
C495        C596   1.422       .  A
C496        C595   1.420       .  A
C496       Br497   1.924       .  S
C501        N506   1.338       .  A
C501        C595   1.482       .  S
N502        C503   1.365   1_554  A
C503        N504   1.391       .  A
C505        N506   1.345       .  A
C505        C544   1.497       .  S
C507        N508   1.337       .  A
C507        N512   1.352       .  A
C507        C585   1.480       .  S
N508        C509   1.346       .  A
C509        N510   1.386       .  A
C509        C564   1.495       .  S
N510        C511   1.389       .  A
C511        N512   1.360       .  A
C511        C530   1.502       .  S
C513        N514   1.341       .  A
C513        N518   1.353       .  A
C513        C592   1.481       .  S
N514        C515   1.348       .  A
C515        N516   1.388       .  A
C515        C543   1.501       .  S
N516        C517   1.390       .  A
C517        N518   1.360       .  A
C517        C577   1.509       .  S
O519        C529   1.274       .  A
O519        V727   1.918   1_545  S
O520        C530   1.268       .  A
O520        V527   1.936       .  S
O521        C531   1.261   1_565  A
O521        V727   1.894       .  S
O522        C532   1.262   1_565  A
O522        V727   1.897       .  S
O523        C532   1.263       .  A
O523        V528   1.900       .  S
O524        C531   1.262       .  A
O524        V528   1.897       .  S
O525        C730   1.273   1_545  A
O525        V528   1.915       .  S
O526        C529   1.268       .  A
O526        V528   1.939       .  S
V527        O719   1.917       .  S
V527        O721   1.893       .  S
V527        O722   1.897       .  S
V527        V728   2.086       .  T
V528        V727   2.086   1_545  T
C529        C551   1.507       .  S
C530        O725   1.273       .  A
C531        C545   1.450       .  S
C532        C546   1.458       .  S
O533        C743   1.267       .  A
O533        V541   1.939   1_565  S
O535        C545   1.261       .  A
O536        C546   1.261       .  A
O536        V541   1.897       .  S
O537        C546   1.264       .  A
O537        V542   1.903       .  S
O538        C545   1.262       .  A
O539        C544   1.266       .  A
O539        V542   1.936       .  S
O540        V642   1.917       .  S
V541        V542   2.087       .  T
V542        O640   1.911   1_545  S
C543        O733   1.267       .  A
C547        N548   1.343       .  A
C547        N552   1.350       .  A
C547        C582   1.480       .  S
N548        C549   1.350       .  A
C549        N550   1.389       .  A
C549        C563   1.502       .  S
N550        C551   1.390       .  A
C551        N552   1.357       .  A
O553        C563   1.267       .  A
O553        V561   1.937       .  S
O554        C564   1.272       .  A
O555        C565   1.263       .  A
O556        C566   1.261       .  A
O557        C566   1.261       .  A
O557        V562   1.893       .  S
O558        C565   1.262       .  A
O558        V562   1.899       .  S
O559        C564   1.267       .  A
O559        V562   1.938       .  S
O560        V562   1.913       .  S
C565        C580   1.460       .  S
C566        C579   1.447       .  S
O568        C578   1.274       .  A
O568        V575   1.923       .  S
O569        C579   1.262       .  A
O569        V575   1.894       .  S
O570        C580   1.265       .  A
O571        C580   1.261       .  A
O572        C579   1.260       .  A
O572        V576   1.891       .  S
O574        C577   1.274       .  A
V575        V576   2.085       .  T
C581        C582   1.401       .  A
C581        H588   1.085       .  S
C583        C584   1.394       .  A
C583       Br590   1.923       .  S
C584        C785   1.402   1_545  A
C584        H589   1.085       .  S
C585        C784   1.402       .  A
C585        C586   1.419       .  A
C586       Br587   1.924   1_655  S
C591        C596   1.392       .  A
C591        H598   1.084       .  S
C592        C593   1.417       .  A
C593        C594   1.394       .  A
C593       Br600   1.922       .  S
C594        C595   1.400       .  A
C594        H599   1.085       .  S
C596       Br597   1.924       .  S
C601        N702   1.357       .  A
C601        N606   1.337       .  A
C601        C695   1.484       .  S
N602        C701   1.356       .  A
N602        C603   1.363       .  A
C603        N604   1.391       .  A
C603        C778   1.513       .  S
N604        C705   1.387       .  A
C605        N704   1.386       .  A
C605        N606   1.344   1_556  A
C605        C644   1.500       .  S
C607        N608   1.337       .  A
C607        N612   1.353       .  A
C607        C685   1.482       .  S
N608        C609   1.346       .  A
C609        N610   1.386       .  A
C609        C664   1.497       .  S
N610        C611   1.390       .  A
C611        N612   1.362       .  A
C611        C630   1.506       .  S
C613        N614   1.343       .  A
C613        N618   1.351       .  A
C613        C692   1.478       .  S
N614        C615   1.349   1_554  A
C615        N616   1.390       .  A
C615        C643   1.503       .  S
N616        C617   1.391       .  A
C617        N618   1.357   1_556  A
C617        C677   1.509       .  S
O619        C629   1.275       .  A
O620        C630   1.269       .  A
O620        V627   1.941   1_565  S
O621        C631   1.259       .  A
O622        C632   1.261       .  A
O623        C632   1.264       .  A
O623        V628   1.903       .  S
O624        C631   1.263       .  A
O624        V628   1.899       .  S
O625        V628   1.915       .  S
O626        C629   1.268       .  A
O626        V628   1.939       .  S
C629        C651   1.509       .  S
C631        C645   1.449       .  S
C632        C646   1.459       .  S
O633        V641   1.937       .  S
O634        C744   1.274       .  A
O634        V741   1.910       .  S
O635        C645   1.260       .  A
O635        V741   1.890       .  S
O636        C646   1.262       .  A
O636        V641   1.900   1_554  S
O637        C646   1.263       .  A
O637        V642   1.901   1_554  S
O638        C645   1.262       .  A
O638        V742   1.896       .  S
O639        C644   1.267       .  A
O639        V642   1.941       .  S
O640        C743   1.273       .  A
V641        O734   1.907       .  S
V641        O735   1.892       .  S
V641        V642   2.086       .  T
V642        O738   1.895       .  S
C643        O740   1.275       .  A
C644        O734   1.273       .  A
C647        N648   1.341       .  A
C647        N652   1.351       .  A
C647        C682   1.478       .  S
N648        C649   1.347       .  A
C649        N650   1.390       .  A
C649        C663   1.502       .  S
N650        C651   1.392       .  A
C651        N652   1.357       .  A
O653        C663   1.266       .  A
O653        V661   1.936       .  S
O654        C664   1.272       .  A
O655        C665   1.263       .  A
O656        C666   1.261       .  A
O657        C666   1.261       .  A
O657        V662   1.894       .  S
O658        C665   1.262       .  A
O658        V662   1.899       .  S
O659        C664   1.267       .  A
O659        V662   1.940       .  S
O660        V662   1.915       .  S
C665        C680   1.458       .  S
C666        C679   1.450       .  S
O667        V775   1.942   1_455  S
O668        C678   1.274       .  A
O668        V675   1.924       .  S
O669        C679   1.263       .  A
O669        V675   1.899   1_554  S
O670        C680   1.263       .  A
O670        V775   1.902       .  S
O671        C680   1.262       .  A
O671        V776   1.898       .  S
O672        C679   1.259       .  A
O672        V676   1.889   1_554  S
O673        C778   1.270       .  A
O673        V776   1.942       .  S
O674        C677   1.274       .  A
V675        O767   1.940   1_655  S
V675        O770   1.908       .  S
V675        V676   2.085       .  T
V676        O771   1.895       .  S
V676        O773   1.940       .  S
C678        C703   1.512       .  S
C678        O773   1.270       .  A
C681        C682   1.400       .  A
C681        H688   1.086       .  S
C683        C684   1.395       .  A
C683       Br690   1.921       .  S
C684        H689   1.086       .  S
C685        C686   1.421       .  A
C686       Br687   1.925   1_655  S
C691        C792   1.400       .  A
C691        C696   1.393       .  A
C691        H698   1.085       .  S
C692        C791   1.399       .  A
C692        C693   1.412       .  A
C693        C694   1.397       .  A
C693       Br700   1.920       .  S
C694        C695   1.403       .  A
C694        H699   1.083       .  S
C695        C796   1.423       .  A
C696        C795   1.420       .  A
C696       Br697   1.924       .  S
C701        N706   1.338       .  A
C701        C795   1.482       .  S
N702        C703   1.366   1_554  A
C703        N704   1.391       .  A
C705        N706   1.345       .  A
C705        C744   1.498       .  S
C707        N708   1.338       .  A
C707        N712   1.352       .  A
C707        C785   1.480       .  S
N708        C709   1.346       .  A
C709        N710   1.385       .  A
C709        C764   1.495       .  S
N710        C711   1.389       .  A
C711        N712   1.360       .  A
C711        C730   1.502       .  S
C713        N714   1.341       .  A
C713        N718   1.353       .  A
C713        C792   1.481       .  S
N714        C715   1.347       .  A
C715        N716   1.388       .  A
C715        C743   1.501       .  S
N716        C717   1.391       .  A
C717        N718   1.360       .  A
C717        C777   1.509       .  S
O719        C729   1.274       .  A
O720        C730   1.268       .  A
O720        V727   1.936       .  S
O721        C731   1.261       .  A
O722        C732   1.262       .  A
O723        C732   1.263       .  A
O723        V728   1.900       .  S
O724        C731   1.262       .  A
O724        V728   1.897       .  S
O725        V728   1.915       .  S
O726        C729   1.268       .  A
O726        V728   1.940       .  S
C729        C751   1.507       .  S
C731        C745   1.450       .  S
C732        C746   1.458       .  S
O733        V741   1.939       .  S
O735        C745   1.261       .  A
O736        C746   1.261       .  A
O736        V741   1.897       .  S
O737        C746   1.264       .  A
O737        V742   1.903       .  S
O738        C745   1.262       .  A
O739        C744   1.266       .  A
O739        V742   1.936       .  S
V741        V742   2.087       .  T
C747        N748   1.344       .  A
C747        N752   1.350       .  A
C747        C782   1.480       .  S
N748        C749   1.351       .  A
C749        N750   1.389       .  A
C749        C763   1.502       .  S
N750        C751   1.390       .  A
C751        N752   1.356       .  A
O753        C763   1.267       .  A
O753        V761   1.936       .  S
O754        C764   1.272       .  A
O755        C765   1.264       .  A
O756        C766   1.261   1_455  A
O757        C766   1.261       .  A
O757        V762   1.892       .  S
O758        C765   1.262       .  A
O758        V762   1.899       .  S
O759        C764   1.267       .  A
O759        V762   1.938       .  S
O760        V762   1.913       .  S
C765        C780   1.461       .  S
C766        C779   1.447       .  S
O768        C778   1.274       .  A
O768        V775   1.923       .  S
O769        C779   1.262       .  A
O769        V775   1.894       .  S
O770        C780   1.265       .  A
O771        C780   1.261       .  A
O772        C779   1.260       .  A
O772        V776   1.891       .  S
O774        C777   1.274       .  A
V775        V776   2.085       .  T
C781        C782   1.401       .  A
C781        H788   1.085       .  S
C783        C784   1.393       .  A
C783       Br790   1.923       .  S
C784        H789   1.085       .  S
C785        C786   1.419       .  A
C786       Br787   1.924   1_655  S
C791        C796   1.392       .  A
C791        H798   1.084       .  S
C792        C793   1.417       .  A
C793        C794   1.394       .  A
C793       Br800   1.922       .  S
C794        C795   1.400       .  A
C794        H799   1.085       .  S
C796       Br797   1.925       .  S
