geometry optimzed in LAMMPS
_audit_creation_date              2020-12-01 
_audit_creation_method            'lammps2cif' 
_symmetry_space_group_name_H-M    'P1' 
_symmetry_Int_Tables_number       1 
_symmetry_cell_setting            triclinic 
loop_ 
_symmetry_equiv_pos_as_xyz 
  x,y,z 
_cell_length_a                    81.13746246 
_cell_length_b                    80.4381607993652 
_cell_length_c                    40.843312149362774 
_cell_angle_alpha                 89.6262995816091 
_cell_angle_beta                  90.28854129231648 
_cell_angle_gamma                 124.67851392816166 
loop_ 
_atom_site_label 
_atom_site_type_symbol 
_atom_site_fract_x 
_atom_site_fract_y 
_atom_site_fract_z 
_atom_site_charge 
O1          O  0.51015400  0.48357891  0.27085846    -0.72700
O2          O  0.47502818  0.48351458  0.33913774    -0.73700
O3          O  0.47561783  0.48446653  0.26957735    -0.62300
O4          O  0.50982047  0.48306263  0.33985649    -0.70700
O5          O  0.52897165  0.51657068  0.34016661    -0.70200
O6          O  0.49493828  0.51797370  0.27045831    -0.61500
O7          O  0.49422903  0.51702878  0.33942098    -0.74000
O8          O  0.52954263  0.51709258  0.27069138    -0.72800
Cu9        Cu  0.49198658  0.48249572  0.30480227     1.04600
Cu10       Cu  0.51261693  0.51833472  0.30519249     1.04300
C11         C  0.52542613  0.50019914  0.26008773     0.93500
C12         C  0.47898344  0.50026421  0.35002453     0.92700
C13         C  0.47977390  0.50148531  0.25916505     0.84800
C14         C  0.52484711  0.49970110  0.35113752     0.91100
N15         N  0.89832543  0.43779202  0.06520315    -0.27000
N16         N  0.91323378  0.43972154  0.04860520    -0.34900
C17         C  0.92936046  0.44765975  0.06815228     0.01300
C18         C  0.92447090  0.45106982  0.09867008     0.07300
C19         C  0.90455512  0.44448024  0.09590566    -0.05800
H20         H  0.94391567  0.45179769  0.06007377     0.08000
H21         H  0.89533635  0.44486170  0.11441600     0.09200
Cu22       Cu  0.91195784  0.43505000  0.99883874     0.44200
Cu23       Cu  0.87104372  0.42794259  0.04361848     0.42000
Cu24       Cu  0.86904362  0.42626229  0.45480530     0.43900
N25         N  0.91234835  0.44156624  0.44907875    -0.34400
N26         N  0.89643538  0.43728516  0.43228540    -0.28700
C27         C  0.90168107  0.44210794  0.40058032    -0.04800
C28         C  0.92184297  0.44964129  0.39763396     0.07400
C29         C  0.92799231  0.44899458  0.42885455     0.01200
H30         H  0.89172579  0.44059892  0.38141753     0.08900
H31         H  0.94306217  0.45455030  0.43670053     0.08000
N32         N  0.84451874  0.41639540  0.48518611    -0.35900
N33         N  0.84529663  0.41778502  0.01650867    -0.28000
C34         C  0.82680890  0.40958720  0.02853982    -0.03300
C35         C  0.81355071  0.40366096  0.00260362     0.05300
C36         C  0.82539886  0.40779023  0.47572662     0.03400
H37         H  0.82325707  0.40745751  0.05436281     0.08500
H38         H  0.82046854  0.40508033  0.45051202     0.07400
N39         N  0.58604067  0.48800783  0.48996891    -0.27000
N40         N  0.58091387  0.49821606  0.50718820    -0.34900
C41         C  0.57206271  0.50431317  0.48737408     0.01300
C42         C  0.57142454  0.49744849  0.45614202     0.07300
C43         C  0.58053624  0.48724789  0.45861681    -0.05800
H44         H  0.56526469  0.51189207  0.49558781     0.08000
H45         H  0.58217590  0.47906559  0.43952520     0.09200
Cu46       Cu  0.58341616  0.50156043  0.05717337     0.44200
Cu47       Cu  0.59697902  0.47285524  0.51159004     0.42000
Cu48       Cu  0.59367744  0.46864072  0.10055154     0.43900
N49         N  0.58110618  0.49707944  0.10705115    -0.34400
N50         N  0.58390504  0.48451626  0.12295574    -0.28700
C51         C  0.57796757  0.48296467  0.15419157    -0.04800
C52         C  0.57118780  0.49524604  0.15795374     0.07400
C53         C  0.57357747  0.50402125  0.12763454     0.01200
H54         H  0.57803054  0.47317448  0.17231470     0.08900
H55         H  0.56877012  0.51361271  0.12032043     0.08000
N56         N  0.60181508  0.45389033  0.07050657    -0.35900
N57         N  0.60396078  0.45593344  0.53891436    -0.28000
C58         C  0.60855728  0.44353144  0.52702772    -0.03300
C59         C  0.61000374  0.43383627  0.05181089     0.05300
C60         C  0.60696948  0.44135301  0.07974038     0.03400
H61         H  0.60932379  0.44098708  0.50127191     0.08500
H62         H  0.60795126  0.43764042  0.10476908     0.07400
N63         N  0.62092318  0.29891554  0.98886143    -0.27000
N64         N  0.63541377  0.29654774  0.98238807    -0.34900
C65         C  0.62720843  0.27789095  0.97020562     0.01300
C66         C  0.60655502  0.26804237  0.96899588     0.07300
C67         C  0.60317266  0.28187610  0.98114485    -0.05800
H68         H  0.63563049  0.27169876  0.96393458     0.08000
H69         H  0.58879431  0.27965488  0.98455207     0.09200
Cu70       Cu  0.66559527  0.31869885  0.99181730     0.44200
Cu71       Cu  0.62587368  0.32499427  0.00862483     0.42000
Cu72       Cu  0.67667743  0.36448089  0.03178423     0.43900
N73         N  0.69445627  0.34329974  0.00350220    -0.34400
N74         N  0.69827976  0.35953009  0.01902131    -0.28700
C75         C  0.71819086  0.37252282  0.02280850    -0.04800
C76         C  0.72753321  0.36430407  0.00876448     0.07400
C77         C  0.71193668  0.34571037  0.99676836     0.01200
H78         H  0.72540091  0.38726861  0.03420327     0.08900
H79         H  0.71310764  0.33456437  0.98430700     0.08000
N80         N  0.65283761  0.36725467  0.03529878    -0.35900
N81         N  0.63435377  0.35278322  0.02653155    -0.28000
C82         C  0.62266046  0.35956049  0.02927855    -0.03300
C83         C  0.63426864  0.37928992  0.04036014     0.05300
C84         C  0.65337377  0.38367888  0.04391340     0.03400
H85         H  0.60688940  0.35081032  0.02300444     0.08500
H86         H  0.66688030  0.39800957  0.05070522     0.07400
N87         N  0.51681677  0.09977686  0.37301987    -0.27000
N88         N  0.50466440  0.08233435  0.38820065    -0.34900
C89         C  0.49930020  0.06715160  0.36763003     0.01300
C90         C  0.50842949  0.07527107  0.33784197     0.07300
C91         C  0.51957403  0.09606174  0.34213041    -0.05800
H92         H  0.49040019  0.05135131  0.37464582     0.08000
H93         H  0.52927664  0.10759545  0.32442814     0.09200
Cu94       Cu  0.49820332  0.07903566  0.43728928     0.44200
Cu95       Cu  0.52959229  0.12746089  0.39617331     0.42000
Cu96       Cu  0.52126318  0.12355410  0.98686142     0.43900
N97         N  0.50200241  0.07878605  0.98855571    -0.34400
N98         N  0.51069816  0.09531623  0.00652437    -0.28700
C99         C  0.51299646  0.09074046  0.03719627    -0.04800
C100        C  0.50522552  0.07031855  0.03847653     0.07400
C101        C  0.49837960  0.06324284  0.00719643     0.01200
H102        H  0.52043409  0.10160988  0.05676754     0.08900
H103        H  0.49251173  0.04824070  0.99802682     0.08000
N104        N  0.53392049  0.15008514  0.95985483    -0.35900
N105        N  0.53873280  0.15190008  0.42658960    -0.28000
C106        C  0.54906102  0.17155572  0.41808655    -0.03300
C107        C  0.55230641  0.18278023  0.44598569     0.05300
C108        C  0.54145409  0.16866353  0.97171235     0.03400
H109        H  0.55413310  0.17724373  0.39357895     0.08500
H110        H  0.54144387  0.17194939  0.99735192     0.07400
O111        O  0.49633387  0.97629361  0.15831957    -0.72700
O112        O  0.49372588  0.01105764  0.22540942    -0.73700
O113        O  0.49383575  0.00995855  0.15589901    -0.62300
O114        O  0.49609453  0.97709416  0.22754414    -0.70700
O115        O  0.52924633  0.99799872  0.22781758    -0.70200
O116        O  0.52699442  0.03088231  0.15615954    -0.61500
O117        O  0.52687984  0.03179008  0.22509515    -0.74000
O118        O  0.52948910  0.99731615  0.15840935    -0.72800
Cu119      Cu  0.49381689  0.99287586  0.19184064     1.04600
Cu120      Cu  0.52928492  0.01517871  0.19193748     1.04300
C121        C  0.51341196  0.98148891  0.14754485     0.93500
C122        C  0.50993977  0.02706411  0.23563434     0.92700
C123        C  0.51000534  0.02553424  0.14456568     0.84800
C124        C  0.51308797  0.98229763  0.23891443     0.91100
O125        O  0.03313047  0.51998435  0.21712530    -0.72700
O126        O  0.99067195  0.48664220  0.28431002    -0.73700
O127        O  0.99191682  0.48780881  0.21477314    -0.62300
O128        O  0.03194658  0.51886927  0.28601709    -0.70700
O129        O  0.02426095  0.54125308  0.28607698    -0.70200
O130        O  0.98350336  0.50965260  0.21531532    -0.61500
O131        O  0.98275037  0.50886896  0.28442537    -0.74000
O132        O  0.02490071  0.54195623  0.21647374    -0.72800
Cu133      Cu  0.01216678  0.50255283  0.25058077     1.04600
Cu134      Cu  0.00356982  0.52621489  0.25059063     1.04300
C135        C  0.03581349  0.53627247  0.20621684     0.93500
C136        C  0.97995028  0.49245060  0.29496186     0.92700
C137        C  0.98133726  0.49378391  0.20378122     0.84800
C138        C  0.03471242  0.53509609  0.29705792     0.91100
N139        N  0.41898042  0.51394153  0.48703464    -0.27000
N140        N  0.42349759  0.50307737  0.50412832    -0.34900
C141        C  0.43150956  0.49628665  0.48413823     0.01300
C142        C  0.43233234  0.50344192  0.45287564     0.07300
C143        C  0.42418317  0.51456399  0.45558679    -0.05800
H144        H  0.43772190  0.48809266  0.49224811     0.08000
H145        H  0.42286002  0.52310586  0.43656811     0.09200
Cu146      Cu  0.42231461  0.50176490  0.55450245     0.44200
Cu147      Cu  0.40836240  0.52919744  0.50910591     0.42000
Cu148      Cu  0.41160875  0.53511884  0.09926542     0.43900
N149        N  0.42610489  0.50791675  0.10386559    -0.34400
N150        N  0.42233266  0.51940273  0.12064686    -0.28700
C151        C  0.42750147  0.51974694  0.15216353    -0.04800
C152        C  0.43492039  0.50793086  0.15532710     0.07400
C153        C  0.43365343  0.50063551  0.12416831     0.01200
H154        H  0.42630803  0.52833432  0.17111579     0.08900
H155        H  0.43897277  0.49162035  0.11632433     0.08000
N156        N  0.40088948  0.54800221  0.06908018    -0.35900
N157        N  0.40021411  0.54525977  0.53574870    -0.28000
C158        C  0.39231327  0.55470369  0.52316360    -0.03300
C159        C  0.39006617  0.56482348  0.54804992     0.05300
C160        C  0.39398111  0.55908662  0.07810826     0.03400
H161        H  0.38897275  0.55464801  0.49752419     0.08500
H162        H  0.39342222  0.56309059  0.10314946     0.07400
N163        N  0.38990782  0.70730384  0.98010549    -0.27000
N164        N  0.37567585  0.71002010  0.97320054    -0.34900
C165        C  0.38410071  0.72923253  0.96362064     0.01300
C166        C  0.40470435  0.73922642  0.96473585     0.07300
C167        C  0.40824867  0.72472327  0.47445441    -0.05800
H168        H  0.37579597  0.73572015  0.95813284     0.08000
H169        H  0.42249866  0.72664671  0.47723604     0.09200
Cu170      Cu  0.34566420  0.68839852  0.98098648     0.44200
Cu171      Cu  0.38422503  0.68075868  0.00007122     0.42000
Cu172      Cu  0.33289492  0.64439186  0.02755132     0.43900
N173        N  0.31682058  0.66597239  0.99465934    -0.34400
N174        N  0.31199159  0.65003800  0.01248964    -0.28700
C175        C  0.29208290  0.63877746  0.01771965    -0.04800
C176        C  0.28403255  0.64804687  0.00222207     0.07400
C177        C  0.30023285  0.66527832  0.98797236     0.01200
H178        H  0.28400722  0.62470507  0.03150580     0.08900
H179        H  0.30013996  0.67682722  0.97432413     0.08000
N180        N  0.35588740  0.64038980  0.03322209    -0.35900
N181        N  0.37434666  0.65334212  0.02237210    -0.28000
C182        C  0.38293477  0.64217863  0.51769168    -0.03300
C183        C  0.37025094  0.62289939  0.53056654     0.05300
C184        C  0.35407617  0.62355741  0.04389765     0.03400
H185        H  0.39829495  0.64928299  0.50989286     0.08500
H186        H  0.34018511  0.61001854  0.05210757     0.07400
N187        N  0.11794442  0.59079351  0.06705023    -0.27000
N188        N  0.10248773  0.58799372  0.05070605    -0.34900
C189        C  0.08704996  0.58127891  0.07122195     0.01300
C190        C  0.09292649  0.57957762  0.10215493     0.07300
C191        C  0.11262921  0.58564187  0.09862527    -0.05800
H192        H  0.07218399  0.57661231  0.06364005     0.08000
H193        H  0.12214972  0.58571976  0.11731884     0.09200
Cu194      Cu  0.10195953  0.58999776  0.00060357     0.44200
Cu195      Cu  0.14464669  0.60017671  0.04372191     0.42000
Cu196      Cu  0.14553015  0.59872135  0.45644925     0.43900
N197        N  0.10366919  0.58830102  0.45145575    -0.34400
N198        N  0.11824663  0.58944483  0.43492800    -0.28700
C199        C  0.11183986  0.58296284  0.40415029    -0.04800
C200        C  0.09239152  0.57776213  0.40119659     0.07400
C201        C  0.08776895  0.58136049  0.43170237     0.01200
H202        H  0.12049921  0.58166658  0.38556446     0.08900
H203        H  0.07341397  0.57788975  0.43966406     0.08000
N204        N  0.17040299  0.60850284  0.48612701    -0.35900
N205        N  0.16968169  0.60954367  0.01519266    -0.28000
C206        C  0.18809024  0.61655132  0.02660015    -0.03300
C207        C  0.20069524  0.62087194  0.00032629     0.05300
C208        C  0.18915370  0.61569774  0.47632483     0.03400
H209        H  0.19190907  0.61848203  0.05235930     0.08500
H210        H  0.19369937  0.61715373  0.45103726     0.07400
N211        N  0.50734941  0.91092879  0.37874241    -0.27000
N212        N  0.51983811  0.92796525  0.39457603    -0.34900
C213        C  0.52599828  0.94363566  0.37421401     0.01300
C214        C  0.51690817  0.93615744  0.34406567     0.07300
C215        C  0.50529009  0.91533587  0.34787908    -0.05800
H216        H  0.53499319  0.95927390  0.38179976     0.08000
H217        H  0.49515097  0.90415208  0.33009726     0.09200
Cu218      Cu  0.52471950  0.92933771  0.94281820     0.44200
Cu219      Cu  0.49109643  0.88257498  0.40041429     0.42000
Cu220      Cu  0.49909653  0.88378022  0.98913749     0.43900
N221        N  0.52193422  0.92873016  0.99299233    -0.34400
N222        N  0.51185707  0.91178905  0.01012877    -0.28700
C223        C  0.50931569  0.91594815  0.04075757    -0.04800
C224        C  0.51837439  0.93658482  0.04302742     0.07400
C225        C  0.52622903  0.94418529  0.01223187     0.01200
H226        H  0.50070068  0.90466616  0.05944998     0.08900
H227        H  0.53306638  0.95952106  0.00360945     0.08000
N228        N  0.48272176  0.85752185  0.96233663    -0.35900
N229        N  0.47697638  0.85685860  0.42947820    -0.28000
C230        C  0.46472574  0.83743055  0.42021612    -0.03300
C231        C  0.46147684  0.82537321  0.94948460     0.05300
C232        C  0.47220389  0.83867716  0.97467570     0.03400
H233        H  0.46031496  0.83245502  0.39513385     0.08500
H234        H  0.47171915  0.83503816  0.00027899     0.07400
C235        C  0.45138218  0.79245615  0.97379408    -0.21000
C236        C  0.44718122  0.80327977  0.95235364    -0.09100
C237        C  0.42829623  0.79213827  0.43186735     0.29800
C238        C  0.41530005  0.77121499  0.43607433    -0.21000
C239        C  0.41974391  0.76113712  0.95979985    -0.09100
C240        C  0.43790616  0.77156753  0.97738798     0.29800
F241        F  0.44237061  0.76183297  0.99908112    -0.19600
H242        H  0.46517732  0.80020350  0.98778896     0.18100
H243        H  0.40148190  0.76299565  0.42217517     0.18100
F244        F  0.42299724  0.80162801  0.41117152    -0.19600
C245        C  0.25042367  0.63089123  0.02859000    -0.21000
C246        C  0.26283283  0.64134167  0.00166863    -0.09100
C247        C  0.25575948  0.64914666  0.48030162     0.29800
C248        C  0.23543529  0.64168879  0.48008357    -0.21000
C249        C  0.22219249  0.62824131  0.00132112    -0.09100
C250        C  0.23041666  0.62459129  0.02869436     0.29800
F251        F  0.21912092  0.61446037  0.05535050    -0.19600
H252        H  0.25628418  0.62776564  0.04986101     0.18100
H253        H  0.22970601  0.64616709  0.46043766     0.18100
F254        F  0.26754241  0.66155347  0.45557172    -0.19600
C255        C  0.39009164  0.59100355  0.51545745    -0.21000
C256        C  0.38422603  0.57910858  0.54395871    -0.09100
C257        C  0.37217946  0.58149979  0.07110780     0.29800
C258        C  0.36831237  0.59638476  0.06837164    -0.21000
C259        C  0.37451465  0.60742097  0.53487277    -0.09100
C260        C  0.38535916  0.60502616  0.51092771     0.29800
F261        F  0.39097016  0.61588170  0.48267016    -0.19600
H262        H  0.39868145  0.58968946  0.49672206     0.18100
H263        H  0.35943921  0.59734068  0.08701577     0.18100
F264        F  0.36405031  0.56815056  0.09640444    -0.19600
C265        C  0.05021032  0.56160145  0.34073047    -0.21000
C266        C  0.05010343  0.54671521  0.32269449    -0.09100
C267        C  0.06472094  0.54292231  0.32971316     0.29800
C268        C  0.07880380  0.55353694  0.35456193    -0.21000
C269        C  0.07845248  0.56788860  0.37325803    -0.09100
C270        C  0.06409851  0.57195368  0.36599236     0.29800
F271        F  0.06358723  0.58605811  0.38311685    -0.19600
H272        H  0.03928502  0.56496627  0.33574724     0.18000
H273        H  0.08964334  0.55008335  0.35982140     0.18100
F274        F  0.06546718  0.52894148  0.31264056    -0.19600
C275        C  0.05064062  0.56250792  0.16203649    -0.21000
C276        C  0.05147068  0.54846544  0.18129580    -0.09100
C277        C  0.06706836  0.54594090  0.17586882     0.29800
C278        C  0.08113002  0.55685724  0.15108318    -0.21000
C279        C  0.07968831  0.57016477  0.13091864    -0.09100
C280        C  0.06448387  0.57313209  0.13691293     0.29800
F281        F  0.06294346  0.58626959  0.11840833    -0.19600
H282        H  0.03894022  0.56487159  0.16578473     0.18100
H283        H  0.09265300  0.55428746  0.14682543     0.18100
F284        F  0.06868789  0.53281657  0.19426509    -0.19600
C285        C  0.53166930  0.97882301  0.10142131    -0.21000
C286        C  0.51473476  0.96951275  0.12177521    -0.09100
C287        C  0.49925453  0.94904188  0.11674022     0.29800
C288        C  0.50070211  0.93826711  0.09150398    -0.21000
C289        C  0.51745302  0.94776289  0.07069025    -0.09100
C290        C  0.53301417  0.96813324  0.07603883     0.29800
F291        F  0.54971884  0.97767065  0.05712966    -0.19600
H292        H  0.54380289  0.99454116  0.10481510     0.18100
H293        H  0.48850360  0.92261045  0.08783262     0.18100
F294        F  0.48284443  0.93937082  0.13634467    -0.19600
C295        C  0.53142713  0.97891639  0.28475383    -0.21000
C296        C  0.51415542  0.97020227  0.26516580    -0.09100
C297        C  0.49813687  0.95001093  0.27103770     0.29800
C298        C  0.49940835  0.93894718  0.29617695    -0.21000
C299        C  0.51650640  0.94778942  0.31622975    -0.09100
C300        C  0.53259726  0.96792222  0.31017258     0.29800
F301        F  0.54956809  0.97699262  0.32848290    -0.19600
H302        H  0.54398033  0.99440209  0.28071334     0.18100
H303        H  0.48672209  0.92357854  0.30038815     0.18100
F304        F  0.48127361  0.94082787  0.25241653    -0.19600
C305        C  0.52534782  0.07171971  0.29025778    -0.21000
C306        C  0.50814617  0.06381315  0.30952007    -0.09100
C307        C  0.49113375  0.04429401  0.30288688     0.29800
C308        C  0.49167205  0.03261666  0.27834608    -0.21000
C309        C  0.50917840  0.04012532  0.26003164    -0.09100
C310        C  0.52593998  0.06000674  0.26578537     0.29800
F311        F  0.54296961  0.06815503  0.24795153    -0.19600
H312        H  0.53859321  0.08670545  0.29486897     0.18100
H313        H  0.47849846  0.01751640  0.27419382     0.18100
F314        F  0.47392408  0.03646807  0.32006885    -0.19600
C315        C  0.52332929  0.06827715  0.08609136    -0.21000
C316        C  0.50629413  0.05897739  0.06592109    -0.09100
C317        C  0.49057163  0.03870784  0.07174636     0.29800
C318        C  0.49186116  0.02802136  0.09752461    -0.21000
C319        C  0.50895066  0.03723231  0.11763043    -0.09100
C320        C  0.52478041  0.05749550  0.11158089     0.29800
F321        F  0.54150647  0.06702483  0.13054930    -0.19600
H322        H  0.53567882  0.08382336  0.08178747     0.18100
H323        H  0.47951298  0.01244368  0.10157903     0.18100
F324        F  0.47372717  0.02936471  0.05307683    -0.19600
C325        C  0.58170493  0.21684601  0.42928196    -0.21000
C326        C  0.56481765  0.20502682  0.44930122    -0.09100
C327        C  0.55931384  0.21488774  0.97193848     0.29800
C328        C  0.57294986  0.23564343  0.97714887    -0.21000
C329        C  0.59131023  0.24665035  0.96034128    -0.09100
C330        C  0.59506946  0.23759924  0.43469230     0.29800
F331        F  0.61141275  0.24838030  0.41516050    -0.19600
H332        H  0.58505372  0.20989213  0.41022491     0.18100
H333        H  0.56947618  0.24292181  0.99538935     0.18100
F334        F  0.54196889  0.20466833  0.98925607    -0.19600
C335        C  0.63106397  0.42204673  0.06982767    -0.21000
C336        C  0.61566227  0.41946823  0.04989287    -0.09100
C337        C  0.60685098  0.40350703  0.53128629     0.29800
C338        C  0.61231916  0.38994341  0.52959512    -0.21000
C339        C  0.62782497  0.39306259  0.04436578    -0.09100
C340        C  0.63725653  0.40906858  0.06697546     0.29800
F341        F  0.65216222  0.41198691  0.08675931    -0.19600
H342        H  0.63856786  0.43437393  0.08716787     0.18100
H343        H  0.60400828  0.37713405  0.51334894     0.18100
F344        F  0.59102039  0.39993398  0.51332624    -0.19600
C345        C  0.95114473  0.45673381  0.36558466    -0.21000
C346        C  0.93514801  0.45875617  0.36893582    -0.09100
C347        C  0.93342812  0.47113668  0.34681054     0.29800
C348        C  0.94793901  0.48185181  0.32255258    -0.21000
C349        C  0.96422089  0.48020287  0.31966875    -0.09100
C350        C  0.96550517  0.46722917  0.34113480     0.29800
F351        F  0.98112091  0.46540701  0.33961217    -0.19600
H352        H  0.95276311  0.44728699  0.38243583     0.18100
H353        H  0.94657464  0.49168361  0.30623107     0.18100
F354        F  0.91846563  0.47386143  0.34979071    -0.19600
C355        C  0.95518053  0.46052838  0.12982874    -0.21000
C356        C  0.93836878  0.46130252  0.12667376    -0.09100
C357        C  0.93567392  0.47260778  0.14952669     0.29800
C358        C  0.94968962  0.48306854  0.17453529    -0.21000
C359        C  0.96650151  0.48232105  0.17754578    -0.09100
C360        C  0.96906909  0.47082041  0.15502409     0.29800
F361        F  0.98533412  0.47004174  0.15662550    -0.19600
H362        H  0.95764307  0.45193553  0.11269117     0.18100
H363        H  0.94738189  0.49182094  0.19163207     0.18100
F364        F  0.91999173  0.47427658  0.14714749    -0.19600
C365        C  0.76204482  0.38759762  0.03140624    -0.21000
C366        C  0.74946537  0.37375153  0.00715057    -0.09100
C367        C  0.75865744  0.37110267  0.47910857     0.29800
C368        C  0.77943215  0.38059053  0.47869167    -0.21000
C369        C  0.79152684  0.39333359  0.00435445    -0.09100
C370        C  0.78277431  0.39711832  0.03031108     0.29800
F371        F  0.79422997  0.41043396  0.05427667    -0.19600
H372        H  0.75581708  0.39098116  0.05157030     0.18100
H373        H  0.78598955  0.37800296  0.45802338     0.18100
F374        F  0.74768486  0.35956423  0.45316415    -0.19600
C375        C  0.56205398  0.51482785  0.19050897    -0.21000
C376        C  0.56092388  0.49689870  0.18615340    -0.09100
C377        C  0.54870944  0.48040284  0.20715724     0.29800
C378        C  0.53744187  0.48176915  0.23133990    -0.21000
C379        C  0.53825521  0.49957680  0.23529009    -0.09100
C380        C  0.55094156  0.51626036  0.21488767     0.29800
F381        F  0.55210386  0.53370593  0.21758633    -0.19600
H382        H  0.57141458  0.52775274  0.17468182     0.18100
H383        H  0.52784300  0.46869929  0.24686164     0.18100
F384        F  0.54679731  0.46262969  0.20340706    -0.19600
C385        C  0.53723622  0.48204563  0.38249524    -0.21000
C386        C  0.53746653  0.49945696  0.37716782    -0.09100
C387        C  0.54954683  0.51639777  0.39737519     0.29800
C388        C  0.56080889  0.51569530  0.42261120    -0.21000
C389        C  0.56050775  0.49829372  0.42794070    -0.09100
C390        C  0.54870261  0.48145083  0.40754299     0.29800
F391        F  0.54741432  0.46406909  0.41282454    -0.19600
H392        H  0.52803475  0.46877810  0.36737002     0.18100
H393        H  0.56972865  0.52878897  0.43823678     0.18100
F394        F  0.54998278  0.53341889  0.39356791    -0.19600
C395        C  0.46608671  0.51780344  0.37915149    -0.21000
C396        C  0.46589503  0.50037410  0.37498450    -0.09100
C397        C  0.45350742  0.48349040  0.39531383     0.29800
C398        C  0.44219173  0.48444689  0.41998763    -0.21000
C399        C  0.44275783  0.50205005  0.42456637    -0.09100
C400        C  0.45460396  0.51866583  0.40356468     0.29800
F401        F  0.45606862  0.53618082  0.40774636    -0.19600
H402        H  0.47539370  0.53096549  0.36371965     0.18100
H403        H  0.43316284  0.47147784  0.43589255     0.18100
F404        F  0.45290090  0.46635079  0.39231538    -0.19600
C405        C  0.46665355  0.51953226  0.23156524    -0.21000
C406        C  0.46702028  0.50230627  0.23403699    -0.09100
C407        C  0.45537578  0.48627006  0.21211580     0.29800
C408        C  0.44458994  0.48803865  0.18711975    -0.21000
C409        C  0.44467559  0.50551752  0.18406186    -0.09100
C410        C  0.45535230  0.52102696  0.20724791     0.29800
F411        F  0.45565521  0.53804835  0.20573794    -0.19600
H412        H  0.47519068  0.53194206  0.24850115     0.18100
H413        H  0.43625493  0.47573872  0.16994358     0.18100
F414        F  0.45491509  0.46915831  0.21408725    -0.19600
O415        O  0.51158753  0.48454788  0.77009527    -0.72700
O416        O  0.47712372  0.48568275  0.83885485    -0.73700
O417        O  0.47709743  0.48559357  0.76911616    -0.62300
O418        O  0.51183539  0.48503167  0.83893587    -0.70700
O419        O  0.53097338  0.51855828  0.83847355    -0.70200
O420        O  0.49679871  0.51910762  0.76887892    -0.61500
O421        O  0.49642789  0.51917908  0.83777663    -0.74000
O422        O  0.53114079  0.51805700  0.76951805    -0.72800
Cu423      Cu  0.49370019  0.48401511  0.80423016     1.04600
Cu424      Cu  0.51449606  0.51986024  0.80359789     1.04300
C425        C  0.52700642  0.50108707  0.75936212     0.93500
C426        C  0.48126960  0.50263609  0.84916672     0.92700
C427        C  0.48148037  0.50257897  0.75810976     0.84800
C428        C  0.52693133  0.50179623  0.84971160     0.91100
N429        N  0.89837153  0.43748427  0.56646246    -0.27000
N430        N  0.91387770  0.44139665  0.54910692    -0.34900
C431        C  0.92970254  0.44821026  0.56893644     0.01300
C432        C  0.92395745  0.44875959  0.60047897     0.07300
C433        C  0.90391452  0.44173170  0.59804632    -0.05800
H434        H  0.94458095  0.45353732  0.56064098     0.08000
H435        H  0.89420693  0.44029385  0.61746589     0.09200
Cu436      Cu  0.91349026  0.43981782  0.49902909     0.44200
Cu437      Cu  0.87112210  0.42803248  0.54509876     0.42000
Cu438      Cu  0.86918760  0.42767155  0.95447076     0.43900
N439        N  0.91123709  0.43849433  0.94891352    -0.34400
N440        N  0.89628650  0.43704828  0.93282432    -0.28700
C441        C  0.90213165  0.44340366  0.90180096    -0.04800
C442        C  0.92157844  0.44884337  0.89838197     0.07400
C443        C  0.92682738  0.44549971  0.92861033     0.01200
H444        H  0.89314469  0.44447206  0.88349822     0.08900
H445        H  0.94139800  0.44918978  0.93593684     0.08000
N446        N  0.84443602  0.41743155  0.98416561    -0.35900
N447        N  0.84540557  0.41741495  0.51752735    -0.28000
C448        C  0.82692916  0.40959238  0.52938903    -0.03300
C449        C  0.81363697  0.40323869  0.50335821     0.05300
C450        C  0.82528749  0.40884207  0.97479096     0.03400
H451        H  0.82345320  0.40805922  0.55522161     0.08500
H452        H  0.82029225  0.40645704  0.94962894     0.07400
N453        N  0.58593467  0.48888205  0.99005878    -0.27000
N454        N  0.58150879  0.49978418  0.00690993    -0.34900
C455        C  0.57355845  0.50667105  0.98662668     0.01300
C456        C  0.57284239  0.49960552  0.95549024     0.07300
C457        C  0.58098342  0.48852010  0.95854805    -0.05800
H458        H  0.56734905  0.51488088  0.99443542     0.08000
H459        H  0.58229513  0.47997420  0.93975144     0.09200
Cu460      Cu  0.58304866  0.50015111  0.55742476     0.44200
Cu461      Cu  0.59520785  0.47228872  0.01170747     0.42000
Cu462      Cu  0.59602032  0.46995887  0.60133809     0.43900
N463        N  0.58188188  0.49693719  0.60754022    -0.34400
N464        N  0.58581046  0.48531955  0.62378900    -0.28700
C465        C  0.58081562  0.48447047  0.65540937    -0.04800
C466        C  0.57353805  0.49629840  0.65905278     0.07400
C467        C  0.57455594  0.50401173  0.62827960     0.01200
H468        H  0.58182020  0.47544519  0.67390920     0.08900
H469        H  0.56899551  0.51295090  0.62095685     0.08000
N470        N  0.60421352  0.45536229  0.57127540    -0.35900
N471        N  0.60181273  0.45482845  0.03818023    -0.28000
C472        C  0.60662175  0.44266935  0.02592744    -0.03300
C473        C  0.61210100  0.43500391  0.55316612     0.05300
C474        C  0.60936176  0.44288853  0.58086066     0.03400
H475        H  0.60773654  0.44057127  0.00009204     0.08500
H476        H  0.61042149  0.43938148  0.60598392     0.07400
N477        N  0.62086755  0.29925354  0.48893631    -0.27000
N478        N  0.63544412  0.29783024  0.47865038    -0.34900
C479        C  0.62728562  0.27932847  0.46586880     0.01300
C480        C  0.60657826  0.26856335  0.46824887     0.07300
C481        C  0.60311774  0.28172141  0.48315195    -0.05800
H482        H  0.63588531  0.27384111  0.45689050     0.08000
H483        H  0.58872209  0.27871844  0.48973289     0.09200
Cu484      Cu  0.66583465  0.32062229  0.48494207     0.44200
Cu485      Cu  0.62573726  0.32475131  0.51112100     0.42000
Cu486      Cu  0.67686312  0.36456800  0.53089194     0.43900
N487        N  0.69469690  0.34464655  0.49828806    -0.34400
N488        N  0.69840750  0.36014648  0.51598005    -0.28700
C489        C  0.71821925  0.37269649  0.52122968    -0.04800
C490        C  0.72765611  0.36495065  0.50598081     0.07400
C491        C  0.71220793  0.34709642  0.49165870     0.01200
H492        H  0.72529587  0.38677945  0.53470395     0.08900
H493        H  0.71349307  0.33640841  0.47788316     0.08000
N494        N  0.65307856  0.36699785  0.53749700    -0.35900
N495        N  0.63438311  0.35239582  0.53009928    -0.28000
C496        C  0.62277623  0.35919598  0.53402159    -0.03300
C497        C  0.63471339  0.37909632  0.54433189     0.05300
C498        C  0.65387676  0.38351535  0.54632871     0.03400
H499        H  0.60689459  0.35044575  0.52856727     0.08500
H500        H  0.66761170  0.39798845  0.55170755     0.07400
N501        N  0.51724431  0.09979785  0.87431439    -0.27000
N502        N  0.50526009  0.08220738  0.88914660    -0.34900
C503        C  0.49967755  0.06725252  0.86790009     0.01300
C504        C  0.50849291  0.07571251  0.83798974     0.07300
C505        C  0.51967809  0.09644838  0.84300357    -0.05800
H506        H  0.49078649  0.05138069  0.87445103     0.08000
H507        H  0.52910475  0.10820799  0.82542008     0.09200
Cu508      Cu  0.49931069  0.07882960  0.93850835     0.44200
Cu509      Cu  0.52979884  0.12714676  0.89841688     0.42000
Cu510      Cu  0.52210022  0.12363795  0.48471751     0.43900
N511        N  0.50052461  0.07875736  0.48728604    -0.34400
N512        N  0.51013068  0.09544369  0.50485694    -0.28700
C513        C  0.51252295  0.09094756  0.53544547    -0.04800
C514        C  0.50387238  0.07037985  0.53714240     0.07400
C515        C  0.49634732  0.06310778  0.50618024     0.01200
H516        H  0.52080775  0.10198417  0.55451622     0.08900
H517        H  0.48989313  0.04793344  0.49726069     0.08000
N518        N  0.53548962  0.15027871  0.45850598    -0.35900
N519        N  0.53777539  0.15152509  0.92814389    -0.28000
C520        C  0.54806758  0.17108799  0.91911323    -0.03300
C521        C  0.55068219  0.18252519  0.94636404     0.05300
C522        C  0.54351186  0.16874520  0.47110537     0.03400
H523        H  0.55376230  0.17660439  0.89476813     0.08500
H524        H  0.54380848  0.17174862  0.49695635     0.07400
O525        O  0.49579146  0.97711674  0.65719190    -0.72700
O526        O  0.49302385  0.01257624  0.72275341    -0.73700
O527        O  0.49359178  0.01078950  0.65370414    -0.62300
O528        O  0.49439384  0.97809624  0.72624520    -0.70700
O529        O  0.52755191  0.99856989  0.72807444    -0.70200
O530        O  0.52677618  0.03150476  0.65426323    -0.61500
O531        O  0.52620410  0.03310144  0.72314125    -0.74000
O532        O  0.52894777  0.99771351  0.65855236    -0.72800
Cu533      Cu  0.49305906  0.99395540  0.68996862     1.04600
Cu534      Cu  0.52854509  0.01591274  0.69109500     1.04300
C535        C  0.51294009  0.98199766  0.64729428     0.93500
C536        C  0.50922950  0.02858152  0.73306582     0.92700
C537        C  0.50983455  0.02618365  0.64238402     0.84800
C538        C  0.51102995  0.98300946  0.73868313     0.91100
O539        O  0.03229659  0.51749322  0.71687474    -0.72700
O540        O  0.99080629  0.48574918  0.78617965    -0.73700
O541        O  0.99134037  0.48484780  0.71683182    -0.62300
O542        O  0.03190796  0.51857031  0.78594185    -0.70700
O543        O  0.02346364  0.54037673  0.78421157    -0.70200
O544        O  0.98285053  0.50664345  0.71524414    -0.61500
O545        O  0.98247847  0.50761406  0.78406929    -0.74000
O546        O  0.02392904  0.53932324  0.71471301    -0.72800
Cu547      Cu  0.01189688  0.50091895  0.75157922     1.04600
Cu548      Cu  0.00289203  0.52425081  0.74947330     1.04300
C549        C  0.03470815  0.53341430  0.70474159     0.93500
C550        C  0.97992352  0.49156481  0.79594194     0.92700
C551        C  0.98060744  0.49047007  0.70518432     0.84800
C552        C  0.03422003  0.53479624  0.79592504     0.91100
N553        N  0.42215552  0.51843171  0.98611598    -0.27000
N554        N  0.42592162  0.50689334  0.00296523    -0.34900
C555        C  0.43372520  0.49990592  0.98289330     0.01300
C556        C  0.43528801  0.50763761  0.95181637     0.07300
C557        C  0.42775083  0.51934948  0.95474420    -0.05800
H558        H  0.43921142  0.49102484  0.99085731     0.08000
H559        H  0.42694698  0.52830838  0.93587024     0.09200
Cu560      Cu  0.42370639  0.50448315  0.05347564     0.44200
Cu561      Cu  0.41110410  0.53324213  0.00891716     0.42000
Cu562      Cu  0.41537667  0.53741103  0.59727257     0.43900
N563        N  0.42636022  0.50739079  0.60404842    -0.34400
N564        N  0.42461650  0.52068289  0.61960401    -0.28700
C565        C  0.43052475  0.52187586  0.65084974    -0.04800
C566        C  0.43637757  0.50878712  0.65500146     0.07400
C567        C  0.43337007  0.49982357  0.62481420     0.01200
H568        H  0.43091246  0.53189222  0.66885020     0.08900
H569        H  0.43721911  0.48946580  0.61774052     0.08000
N570        N  0.40309777  0.54885736  0.56753963    -0.35900
N571        N  0.40066805  0.54702246  0.03672608    -0.28000
C572        C  0.39366492  0.55738933  0.02444175    -0.03300
C573        C  0.38925420  0.56540569  0.05008102     0.05300
C574        C  0.39703991  0.56076939  0.57596931     0.03400
H575        H  0.39246173  0.55942382  0.99859827     0.08500
H576        H  0.39838055  0.56669082  0.60031512     0.07400
N577        N  0.39033035  0.70739145  0.48074179    -0.27000
N578        N  0.37617711  0.71046953  0.47559316    -0.34900
C579        C  0.38452577  0.72958887  0.46571902     0.01300
C580        C  0.40503644  0.73926011  0.46479985     0.07300
C581        C  0.40783525  0.72476071  0.97502188    -0.05800
H582        H  0.37626627  0.73622982  0.46113006     0.08000
H583        H  0.42202538  0.72680895  0.97948731     0.09200
Cu584      Cu  0.34633926  0.68949546  0.48499515     0.44200
Cu585      Cu  0.38394991  0.67980560  0.49778024     0.42000
Cu586      Cu  0.33207704  0.64302316  0.52441601     0.43900
N587        N  0.31734158  0.66729972  0.49764074    -0.34400
N588        N  0.31200324  0.65033321  0.51263489    -0.28700
C589        C  0.29210851  0.63921685  0.51754460    -0.04800
C590        C  0.28459680  0.64970351  0.50496055     0.07400
C591        C  0.30108673  0.66747434  0.49256613     0.01200
H592        H  0.28367090  0.62439222  0.52905294     0.08900
H593        H  0.30143413  0.67988123  0.48119681     0.08000
N594        N  0.35447839  0.63800336  0.52676731    -0.35900
N595        N  0.37294421  0.65094019  0.51585562    -0.28000
C596        C  0.38468840  0.64502965  0.02564824    -0.03300
C597        C  0.37214124  0.62588292  0.03906588     0.05300
C598        C  0.35237779  0.62082533  0.53626153     0.03400
H599        H  0.39996774  0.65207680  0.01742705     0.08500
H600        H  0.33856283  0.60746501  0.54514687     0.07400
N601        N  0.11838895  0.59035162  0.56840844    -0.27000
N602        N  0.10356672  0.58866445  0.55160495    -0.34900
C603        C  0.08759098  0.58117150  0.57122001     0.01300
C604        C  0.09251692  0.57778367  0.60179563     0.07300
C605        C  0.11216286  0.58369466  0.59917899    -0.05800
H606        H  0.07298046  0.57705610  0.56313174     0.08000
H607        H  0.12099664  0.58256233  0.61781431     0.09200
Cu608      Cu  0.10427930  0.59234749  0.50143625     0.44200
Cu609      Cu  0.14530834  0.59972366  0.54678554     0.42000
Cu610      Cu  0.14463723  0.59954041  0.95387340     0.43900
N611        N  0.10195177  0.58765673  0.95055060    -0.34400
N612        N  0.11701926  0.59027452  0.93331757    -0.28700
C613        C  0.11093074  0.58504527  0.90208867    -0.04800
C614        C  0.09117894  0.57902361  0.89968128     0.07400
C615        C  0.08604944  0.58091279  0.93092053     0.01200
H616        H  0.11997722  0.58494404  0.88282034     0.08900
H617        H  0.07138985  0.57631279  0.93938681     0.08000
N618        N  0.16991173  0.60931041  0.98281703    -0.35900
N619        N  0.17008120  0.60866718  0.51851349    -0.28000
C620        C  0.18846542  0.61581629  0.53009156    -0.03300
C621        C  0.20108584  0.62044838  0.50385790     0.05300
C622        C  0.18860430  0.61619664  0.97288178     0.03400
H623        H  0.19235062  0.61782267  0.55585412     0.08500
H624        H  0.19295391  0.61733221  0.94755083     0.07400
N625        N  0.50457929  0.91033835  0.87845413    -0.27000
N626        N  0.51724707  0.92740324  0.89404523    -0.34900
C627        C  0.52199506  0.94307284  0.87472553     0.01300
C628        C  0.51192997  0.93568216  0.84527646     0.07300
C629        C  0.50095093  0.91479112  0.84857636    -0.05800
H630        H  0.53110946  0.95865120  0.88258123     0.08000
H631        H  0.49067576  0.90361198  0.83089169     0.09200
Cu632      Cu  0.52485468  0.92988683  0.44449160     0.44200
Cu633      Cu  0.49143064  0.88209715  0.90043127     0.42000
Cu634      Cu  0.49510001  0.88367596  0.48841398     0.43900
N635        N  0.52155112  0.92858954  0.49473423    -0.34400
N636        N  0.50986060  0.91141464  0.51077746    -0.28700
C637        C  0.50762238  0.91539008  0.54168259    -0.04800
C638        C  0.51858094  0.93615041  0.54534929     0.07400
C639        C  0.52728877  0.94403613  0.51509422     0.01200
H640        H  0.49781188  0.90400819  0.55950185     0.08900
H641        H  0.53556860  0.95972446  0.50753709     0.08000
N642        N  0.47924996  0.85750233  0.46159798    -0.35900
N643        N  0.47934370  0.85675088  0.93047707    -0.28000
C644        C  0.46637717  0.83731456  0.92179496    -0.03300
C645        C  0.45930201  0.82539447  0.44791666     0.05300
C646        C  0.46883302  0.83862006  0.47364149     0.03400
H647        H  0.46078564  0.83228707  0.89712971     0.08500
H648        H  0.46787892  0.83486044  0.49927974     0.07400
C649        C  0.45068301  0.79305915  0.47248145    -0.21000
C650        C  0.44602941  0.80321685  0.45030505    -0.09100
C651        C  0.42909660  0.79292591  0.93469199     0.29800
C652        C  0.41549185  0.77204629  0.93852390    -0.21000
C653        C  0.41988239  0.76102355  0.45843476    -0.09100
C654        C  0.43784455  0.77212213  0.47637409     0.29800
F655        F  0.44252086  0.76297581  0.49894328    -0.19600
H656        H  0.46424981  0.80139194  0.48701895     0.18100
H657        H  0.40157444  0.76441896  0.92489445     0.18100
F658        F  0.42416634  0.80306475  0.91483395    -0.19600
C659        C  0.25075519  0.63046406  0.53033224    -0.21000
C660        C  0.26351151  0.64321215  0.50517407    -0.09100
C661        C  0.25481215  0.64537948  0.97457429     0.29800
C662        C  0.23468102  0.63873737  0.97437627    -0.21000
C663        C  0.22263414  0.62866003  0.50498187    -0.09100
C664        C  0.23057514  0.62339980  0.53051816     0.29800
F665        F  0.21876590  0.61082708  0.55507573    -0.19600
H666        H  0.25640828  0.62593455  0.55000729     0.18100
H667        H  0.22890503  0.64193048  0.95309429     0.18100
F668        F  0.26621017  0.65521953  0.94781890    -0.19600
C669        C  0.39079608  0.59333593  0.02028682    -0.21000
C670        C  0.38385490  0.58013831  0.04729409    -0.09100
C671        C  0.37288182  0.58104551  0.56763644     0.29800
C672        C  0.36794023  0.59502388  0.56292516    -0.21000
C673        C  0.37600091  0.61005079  0.04192188    -0.09100
C674        C  0.38688336  0.60805806  0.01749861     0.29800
F675        F  0.39319566  0.61989175  0.99027594    -0.19600
H676        H  0.39958461  0.59250741  0.00133627     0.18100
H677        H  0.35930289  0.59643826  0.58144058     0.18100
F678        F  0.36619338  0.56915132  0.59480616    -0.19600
C679        C  0.04760761  0.56019742  0.84106457    -0.21000
C680        C  0.04939162  0.54706439  0.82129075    -0.09100
C681        C  0.06559809  0.54546780  0.82644880     0.29800
C682        C  0.07947429  0.55649027  0.85124121    -0.21000
C683        C  0.07735037  0.56906837  0.87172540    -0.09100
C684        C  0.06133385  0.57097074  0.86633470     0.29800
F685        F  0.05896708  0.58326106  0.88532643    -0.19600
H686        H  0.03531323  0.56174609  0.83750231     0.18000
H687        H  0.09156152  0.55464757  0.85506899     0.18100
F688        F  0.06810642  0.53325860  0.80753110    -0.19600
C689        C  0.05131543  0.56140026  0.66335946    -0.21000
C690        C  0.05000716  0.54504668  0.67897724    -0.09100
C691        C  0.06330740  0.53996301  0.66942575     0.29800
C692        C  0.07765332  0.55118917  0.64515948    -0.21000
C693        C  0.07859636  0.56721663  0.62930290    -0.09100
C694        C  0.06529628  0.57222256  0.63849224     0.29800
F695        F  0.06595014  0.58771955  0.62358147    -0.19600
H696        H  0.04133412  0.56567049  0.67002405     0.18100
H697        H  0.08756777  0.54692076  0.63796164     0.18100
F698        F  0.06234825  0.52400133  0.68307688    -0.19600
C699        C  0.53256579  0.97789098  0.60525654    -0.21000
C700        C  0.51445678  0.96970979  0.62228318    -0.09100
C701        C  0.49800458  0.95004919  0.61461629     0.29800
C702        C  0.49973764  0.93892057  0.59046096    -0.21000
C703        C  0.51766381  0.94734661  0.57290746    -0.09100
C704        C  0.53413143  0.96692127  0.58059597     0.29800
F705        F  0.55176828  0.97543645  0.56439398    -0.19600
H706        H  0.54545170  0.99298729  0.61053723     0.18100
H707        H  0.48677684  0.92396369  0.58467626     0.18100
F708        F  0.48017576  0.94158297  0.63015856    -0.19600
C709        C  0.52795829  0.97890646  0.78599015    -0.21000
C710        C  0.51110852  0.97065160  0.76561506    -0.09100
C711        C  0.49447940  0.95068880  0.77150240     0.29800
C712        C  0.49496021  0.93929140  0.79705955    -0.21000
C713        C  0.51179084  0.94766024  0.81763785    -0.09100
C714        C  0.52828266  0.96768169  0.81187941     0.29800
F715        F  0.54497460  0.97643116  0.83080164    -0.19600
H716        H  0.54088794  0.99422358  0.78214509     0.18100
H717        H  0.48198908  0.92404271  0.80108581     0.18100
F718        F  0.47780499  0.94205739  0.75247085    -0.19600
C719        C  0.52442031  0.07319131  0.78771987    -0.21000
C720        C  0.50779063  0.06464876  0.80863276    -0.09100
C721        C  0.49097882  0.04493075  0.80238752     0.29800
C722        C  0.49132248  0.03360963  0.77700031    -0.21000
C723        C  0.50839848  0.04164910  0.75735119    -0.09100
C724        C  0.52478891  0.06182552  0.76229920     0.29800
F725        F  0.54124354  0.07054608  0.74284373    -0.19600
H726        H  0.53745308  0.08839031  0.79176778     0.18100
H727        H  0.47840931  0.01828185  0.77341561     0.18100
F728        F  0.47416020  0.03648459  0.82084627    -0.19600
C729        C  0.52254623  0.06860440  0.58397495    -0.21000
C730        C  0.50527845  0.05916931  0.56430629    -0.09100
C731        C  0.48964052  0.03893946  0.57043370     0.29800
C732        C  0.49137873  0.02831696  0.59571644    -0.21000
C733        C  0.50869343  0.03767273  0.61533359    -0.09100
C734        C  0.52429481  0.05797943  0.60932615     0.29800
F735        F  0.54094969  0.06774783  0.62844508    -0.19600
H736        H  0.53479021  0.08417706  0.57955439     0.18100
H737        H  0.47910035  0.01273428  0.59999130     0.18100
F738        F  0.47241812  0.02962562  0.55271781    -0.19600
C739        C  0.58142294  0.21605812  0.93095852    -0.21000
C740        C  0.56367860  0.20480883  0.94930025    -0.09100
C741        C  0.56081898  0.21455134  0.47367823     0.29800
C742        C  0.57401904  0.23537337  0.47875242    -0.21000
C743        C  0.59160114  0.24701066  0.46006006    -0.09100
C744        C  0.59520576  0.23674568  0.93653767     0.29800
F745        F  0.61235369  0.24698946  0.91873752    -0.19600
H746        H  0.58507602  0.20867488  0.91322528     0.18100
H747        H  0.57085968  0.24222193  0.49825518     0.18100
F748        F  0.54425573  0.20375109  0.49278981    -0.19600
C749        C  0.63338740  0.42348302  0.57070687    -0.21000
C750        C  0.61743521  0.42040554  0.55178045    -0.09100
C751        C  0.60597601  0.40331455  0.02778571     0.29800
C752        C  0.61197259  0.39020427  0.02518151    -0.21000
C753        C  0.62865665  0.39320676  0.54782758    -0.09100
C754        C  0.63917697  0.41015999  0.56850894     0.29800
F755        F  0.65487663  0.41380209  0.58688164    -0.19600
H756        H  0.64165151  0.43648120  0.58664722     0.18100
H757        H  0.60439048  0.37800620  0.00766287     0.18100
F758        F  0.59042913  0.39994893  0.00922333    -0.19600
C759        C  0.94670279  0.45186376  0.85989868    -0.21000
C760        C  0.93514153  0.45872301  0.87036221    -0.09100
C761        C  0.93785598  0.47592459  0.85569021     0.29800
C762        C  0.95239622  0.48643429  0.83148441    -0.21000
C763        C  0.96425343  0.47979762  0.82109145    -0.09100
C764        C  0.96094865  0.46207747  0.83516005     0.29800
F765        F  0.97151980  0.45464765  0.82538452    -0.19600
H766        H  0.94470963  0.43857478  0.87102497     0.18100
H767        H  0.95450252  0.49994667  0.82114666     0.18100
F768        F  0.92717858  0.48315934  0.86587768    -0.19600
C769        C  0.95412526  0.45686751  0.63187719    -0.21000
C770        C  0.93738050  0.45778813  0.62911481    -0.09100
C771        C  0.93454683  0.46868658  0.65250178     0.29800
C772        C  0.94852804  0.47892837  0.67748286    -0.21000
C773        C  0.96545236  0.47835937  0.67987798    -0.09100
C774        C  0.96800574  0.46693069  0.65719261     0.29800
F775        F  0.98434831  0.46626647  0.65850855    -0.19600
H776        H  0.95661555  0.44857368  0.61414219     0.18100
H777        H  0.94624952  0.48759683  0.69477885     0.18100
F778        F  0.91894743  0.47049474  0.65026807    -0.19600
C779        C  0.76166629  0.38661412  0.53136339    -0.21000
C780        C  0.74953950  0.37412108  0.50545967    -0.09100
C781        C  0.75816934  0.36957745  0.98154666     0.29800
C782        C  0.77901088  0.37949014  0.98003729    -0.21000
C783        C  0.79157749  0.39313376  0.50456661    -0.09100
C784        C  0.78239711  0.39595298  0.53110567     0.29800
F785        F  0.79339241  0.40819778  0.55643304    -0.19600
H786        H  0.75509011  0.38916014  0.55205367     0.18100
H787        H  0.78534649  0.37614302  0.95998054     0.18100
F788        F  0.74670796  0.35636659  0.95747930    -0.19600
C789        C  0.56501672  0.51609813  0.69208163    -0.21000
C790        C  0.56363753  0.49807767  0.68755147    -0.09100
C791        C  0.55110057  0.48144637  0.70809849     0.29800
C792        C  0.53934054  0.48262145  0.73154840    -0.21000
C793        C  0.54017040  0.50044992  0.73532781    -0.09100
C794        C  0.55355304  0.51740203  0.71587536     0.29800
F795        F  0.55505294  0.53500876  0.71886480    -0.19600
H796        H  0.57472533  0.52912692  0.67662194     0.18100
H797        H  0.52936145  0.46941756  0.74658747     0.18100
F798        F  0.54929819  0.46372343  0.70436506    -0.19600
C799        C  0.53964168  0.48453314  0.88078499    -0.21000
C800        C  0.53968402  0.50181014  0.87556119    -0.09100
C801        C  0.55152946  0.51874801  0.89586078     0.29800
C802        C  0.56261945  0.51806121  0.92142266    -0.21000
C803        C  0.56231964  0.50066373  0.92690051    -0.09100
C804        C  0.55086490  0.48392272  0.90613702     0.29800
F805        F  0.54955859  0.46653554  0.91137716    -0.19600
H806        H  0.53066179  0.47131162  0.86545271     0.18100
H807        H  0.57131693  0.53109891  0.93722191     0.18100
F808        F  0.55179565  0.53567103  0.89190358    -0.19600
C809        C  0.46958585  0.52121210  0.87881245    -0.21000
C810        C  0.46850901  0.50330139  0.87430131    -0.09100
C811        C  0.45549074  0.48647422  0.89434597     0.29800
C812        C  0.44426839  0.48785257  0.91876440    -0.21000
C813        C  0.44562183  0.50588187  0.92356482    -0.09100
C814        C  0.45823253  0.52251415  0.90301244     0.29800
F815        F  0.46050578  0.54041539  0.90738777    -0.19600
H816        H  0.47943806  0.53439362  0.86376082     0.18100
H817        H  0.43469897  0.47486300  0.93432600     0.18100
F818        F  0.45413368  0.46893476  0.89130720    -0.19600
C819        C  0.46936968  0.52111322  0.72950497    -0.21000
C820        C  0.46883583  0.50342257  0.73297700    -0.09100
C821        C  0.45662779  0.48711388  0.71184644     0.29800
C822        C  0.44550433  0.48873441  0.68739186    -0.21000
C823        C  0.44640066  0.50661911  0.68342598    -0.09100
C824        C  0.45828908  0.52275404  0.70506665     0.29800
F825        F  0.46017250  0.54054722  0.70167612    -0.19600
H826        H  0.47863512  0.53388279  0.74550727     0.18100
H827        H  0.43646256  0.47607620  0.67111839     0.18100
F828        F  0.45611679  0.46997202  0.71377222    -0.19600
loop_ 
_geom_bond_atom_site_label_1 
_geom_bond_atom_site_label_2 
_geom_bond_distance 
_geom_bond_site_symmetry_2 
_ccdc_geom_bond_type 
O1           Cu9   1.994       .  S
O1           C11   1.276       .  A
O2           Cu9   2.004       .  S
O2           C12   1.277       .  A
O3           Cu9   2.019       .  S
O3           C13   1.280       .  A
O4           Cu9   2.013       .  S
O4           C14   1.279       .  A
O5          Cu10   2.004       .  S
O5           C14   1.277       .  A
O6          Cu10   2.001       .  S
O6           C13   1.277       .  A
O7          Cu10   2.008       .  S
O7           C12   1.279       .  A
O8          Cu10   2.015       .  S
O8           C11   1.279       .  A
Cu9         Cu10   2.371       .  S
C11         C379   1.477       .  S
C12         C396   1.479       .  S
C13         C406   1.481       .  S
C14         C386   1.480       .  S
N15          N16   1.319       .  A
N15          C19   1.346       .  A
N15         Cu23   2.073       .  S
N16          C17   1.343       .  A
N16         Cu22   2.061   1_554  S
C17          C18   1.385       .  A
C17          H20   1.081       .  S
C18         C356   1.483       .  S
C18          C19   1.389       .  A
C19          H21   1.079       .  S
Cu22        N439   2.061       .  S
Cu23         N33   2.075       .  S
Cu24         N26   2.083       .  S
Cu24         N32   2.084       .  S
N25          N26   1.321       .  A
N25          C29   1.338       .  A
N25        Cu436   2.049       .  S
N26          C27   1.349       .  A
C27          C28   1.390       .  A
C27          H30   1.078       .  S
C28         C346   1.476       .  S
C28          C29   1.378       .  A
C29          H31   1.083       .  S
N32         N447   1.323       .  A
N32          C36   1.346       .  A
N33         N446   1.322   1_554  A
N33          C34   1.343       .  A
C34          C35   1.385       .  A
C34          H37   1.081       .  S
C35         C369   1.483       .  S
C35         C450   1.387   1_554  A
C36         C449   1.388       .  A
C36          H38   1.081       .  S
N39          N40   1.319       .  A
N39          C43   1.344       .  A
N39         Cu47   2.064       .  S
N40          C41   1.342       .  A
N40        Cu460   2.058       .  S
C41          C42   1.382       .  A
C41          H44   1.084       .  S
C42         C389   1.474       .  S
C42          C43   1.385       .  A
C43          H45   1.080       .  S
Cu46         N49   2.057       .  S
Cu46        N454   2.058       .  S
Cu47         N57   2.066       .  S
Cu48         N50   2.067       .  S
Cu48         N56   2.066       .  S
N49          N50   1.321       .  A
N49          C53   1.338       .  A
N50          C51   1.346       .  A
C51          C52   1.387       .  A
C51          H54   1.079       .  S
C52         C376   1.475       .  S
C52          C53   1.380       .  A
C53          H55   1.084       .  S
N56         N471   1.322       .  A
N56          C60   1.344       .  A
N57         N470   1.323       .  A
N57          C58   1.342       .  A
C58         C473   1.380       .  A
C58          H61   1.082       .  S
C59         C336   1.469       .  S
C59          C60   1.382       .  A
C59         C472   1.381       .  A
C60          H62   1.078       .  S
N63          N64   1.322       .  A
N63          C67   1.344       .  A
N63         Cu71   2.067   1_556  S
N64          C65   1.346       .  A
N64         Cu70   2.087       .  S
C65          C66   1.388       .  A
C65          H68   1.082       .  S
C66         C329   1.482       .  S
C66          C67   1.384       .  A
C67          H69   1.085       .  S
Cu70         N73   2.087   1_556  S
Cu71         N81   2.067       .  S
Cu72         N74   2.076       .  S
Cu72         N80   2.075       .  S
N73          N74   1.323       .  A
N73          C77   1.347   1_554  A
N74          C75   1.343       .  A
C75          C76   1.386       .  A
C75          H78   1.087       .  S
C76         C366   1.487       .  S
C76          C77   1.389   1_554  A
C77          H79   1.084       .  S
N80          N81   1.321       .  A
N80          C84   1.346       .  A
N81          C82   1.342       .  A
C82          C83   1.384       .  A
C82          H85   1.083       .  S
C83         C339   1.480       .  S
C83          C84   1.387       .  A
C84          H86   1.082       .  S
N87          N88   1.321       .  A
N87          C91   1.347       .  A
N87         Cu95   2.078       .  S
N88          C89   1.339       .  A
N88         Cu94   2.052       .  S
C89          C90   1.380       .  A
C89          H92   1.083       .  S
C90         C306   1.476       .  S
C90          C91   1.388       .  A
C91          H93   1.081       .  S
Cu94        N511   2.051       .  S
Cu95        N105   2.079       .  S
Cu96         N98   2.075   1_556  S
Cu96        N104   2.077       .  S
N97          N98   1.321   1_556  A
N97         C101   1.342   1_556  A
N97        Cu508   2.055       .  S
N98          C99   1.345       .  A
C99         C100   1.385       .  A
C99         H102   1.082       .  S
C100        C316   1.474       .  S
C100        C101   1.381       .  A
C101        H103   1.083   1_554  S
N104        N519   1.323       .  A
N104        C108   1.345       .  A
N105        N518   1.322       .  A
N105        C106   1.346       .  A
C106        C107   1.387       .  A
C106        H109   1.079       .  S
C107        C326   1.478       .  S
C107        C522   1.383       .  A
C108        C521   1.385       .  A
C108        H110   1.082       .  S
O111       Cu119   2.008       .  S
O111        C121   1.278       .  A
O112       Cu119   2.014   1_545  S
O112        C122   1.279       .  A
O113       Cu119   2.004   1_545  S
O113        C123   1.278       .  A
O114       Cu119   2.003       .  S
O114        C124   1.277       .  A
O115       Cu120   2.006   1_565  S
O115        C124   1.278       .  A
O116       Cu120   2.001       .  S
O116        C123   1.277       .  A
O117       Cu120   1.995       .  S
O117        C122   1.276       .  A
O118       Cu120   1.998   1_565  S
O118        C121   1.277       .  A
Cu119      Cu120   2.372   1_565  S
C121        C286   1.476       .  S
C122        C309   1.479       .  S
C123        C319   1.477       .  S
C124        C296   1.478       .  S
O125       Cu133   2.003       .  S
O125        C135   1.277       .  A
O126       Cu133   2.010   1_655  S
O126        C136   1.278       .  A
O127       Cu133   2.006   1_655  S
O127        C137   1.278       .  A
O128       Cu133   1.999       .  S
O128        C138   1.277       .  A
O129       Cu134   2.017       .  S
O129        C138   1.279       .  A
O130       Cu134   2.009   1_655  S
O130        C137   1.278       .  A
O131       Cu134   2.007   1_655  S
O131        C136   1.278       .  A
O132       Cu134   2.012       .  S
O132        C135   1.279       .  A
Cu133      Cu134   2.371       .  S
C135        C276   1.481       .  S
C136        C349   1.479       .  S
C137        C359   1.478       .  S
C138        C266   1.484       .  S
N139        N140   1.319       .  A
N139        C143   1.346       .  A
N139       Cu147   2.070       .  S
N140        C141   1.343       .  A
N140       Cu146   2.059       .  S
C141        C142   1.383       .  A
C141        H144   1.082       .  S
C142        C399   1.478       .  S
C142        C143   1.387       .  A
C143        H145   1.078       .  S
Cu146       N563   2.060       .  S
Cu147       N157   2.071       .  S
Cu148       N150   2.085       .  S
Cu148       N156   2.085       .  S
N149        N150   1.323       .  A
N149        C153   1.343       .  A
N149       Cu560   2.072       .  S
N150        C151   1.347       .  A
C151        C152   1.390       .  A
C151        H154   1.081       .  S
C152        C409   1.485       .  S
C152        C153   1.384       .  A
C153        H155   1.084       .  S
N156        N571   1.324       .  A
N156        C160   1.349       .  A
N157        N570   1.323       .  A
N157        C158   1.341       .  A
C158        C159   1.382       .  A
C158        H161   1.080       .  S
C159        C256   1.480       .  S
C159        C574   1.388       .  A
C160        C573   1.388       .  A
C160        H162   1.083       .  S
N163        N164   1.321       .  A
N163        C581   1.344       .  A
N163       Cu171   2.073   1_556  S
N164        C165   1.342       .  A
N164       Cu170   2.058       .  S
C165        C166   1.383       .  A
C165        H168   1.083       .  S
C166        C239   1.479       .  S
C166        C581   1.387       .  A
C167        N577   1.348       .  A
C167        C580   1.389       .  A
C167        H169   1.081       .  S
Cu170       N173   2.059       .  S
Cu171       N181   2.075       .  S
Cu172       N174   2.079       .  S
Cu172       N180   2.077       .  S
N173        N174   1.321   1_556  A
N173        C177   1.342       .  A
N174        C175   1.346       .  A
C175        C176   1.388       .  A
C175        H178   1.086       .  S
C176        C246   1.481       .  S
C176        C177   1.383   1_554  A
C177        H179   1.084       .  S
N180        N181   1.323       .  A
N180        C184   1.346       .  A
N181        C596   1.344       .  A
C182        N595   1.345       .  A
C182        C183   1.385       .  A
C182        H185   1.083       .  S
C183        C259   1.479       .  S
C183        C598   1.383       .  A
C184        C597   1.383       .  A
C184        H186   1.082       .  S
N187        N188   1.320       .  A
N187        C191   1.348       .  A
N187       Cu195   2.079       .  S
N188        C189   1.341       .  A
N188       Cu194   2.054       .  S
C189        C190   1.381       .  A
C189        H192   1.084       .  S
C190        C279   1.477       .  S
C190        C191   1.389       .  A
C191        H193   1.081       .  S
Cu194       N611   2.054   1_554  S
Cu195       N205   2.079       .  S
Cu196       N198   2.083       .  S
Cu196       N204   2.084       .  S
N197        N198   1.322       .  A
N197        C201   1.343       .  A
N197       Cu608   2.065       .  S
N198        C199   1.348       .  A
C199        C200   1.388       .  A
C199        H202   1.082       .  S
C200        C269   1.479       .  S
C200        C201   1.382       .  A
C201        H203   1.083       .  S
N204        N619   1.323       .  A
N204        C208   1.346       .  A
N205        N618   1.323   1_554  A
N205        C206   1.343       .  A
C206        C207   1.386       .  A
C206        H209   1.082       .  S
C207        C249   1.489       .  S
C207        C622   1.391   1_554  A
C208        C621   1.386       .  A
C208        H210   1.081       .  S
N211        N212   1.322       .  A
N211        C215   1.342       .  A
N211       Cu219   2.071       .  S
N212        C213   1.343       .  A
N212       Cu632   2.066       .  S
C213        C214   1.385       .  A
C213        H216   1.081       .  S
C214        C299   1.480       .  S
C214        C215   1.385       .  A
C215        H217   1.083       .  S
Cu218       N221   2.060       .  S
Cu218       N626   2.060       .  S
Cu219       N229   2.070       .  S
Cu220       N222   2.060   1_556  S
Cu220       N228   2.061       .  S
N221        N222   1.319   1_556  A
N221        C225   1.342   1_556  A
N222        C223   1.344       .  A
C223        C224   1.385       .  A
C223        H226   1.081       .  S
C224        C289   1.477       .  S
C224        C225   1.384       .  A
C225        H227   1.082       .  S
N228        N643   1.323       .  A
N228        C232   1.343       .  A
N229        N642   1.321       .  A
N229        C230   1.345       .  A
C230        C645   1.385       .  A
C230        H233   1.085       .  S
C231        C236   1.473       .  S
C231        C232   1.381       .  A
C231        C644   1.384       .  A
C232        H234   1.079   1_556  S
C235        C236   1.402       .  A
C235        C240   1.396       .  A
C235        H242   1.083       .  S
C236        C651   1.405       .  A
C237        C238   1.397       .  A
C237        C650   1.404       .  A
C237        F244   1.358       .  S
C238        C653   1.406       .  A
C238        H243   1.082       .  S
C239        C240   1.408       .  A
C239        C652   1.406       .  A
C240        F241   1.356       .  S
C245        C246   1.402       .  A
C245        C250   1.399       .  A
C245        H252   1.083       .  S
C246        C661   1.408   1_554  A
C247        C248   1.398       .  A
C247        C660   1.409       .  A
C247        F254   1.357       .  S
C248        C663   1.403       .  A
C248        H253   1.083       .  S
C249        C250   1.412       .  A
C249        C662   1.406   1_554  A
C250        F251   1.356       .  S
C255        C256   1.404       .  A
C255        C260   1.394       .  A
C255        H262   1.083       .  S
C256        C671   1.407       .  A
C257        C258   1.404       .  A
C257        C670   1.409       .  A
C257        F264   1.357       .  S
C258        C673   1.406       .  A
C258        H263   1.083       .  S
C259        C260   1.404       .  A
C259        C672   1.406       .  A
C260        F261   1.357       .  S
C265        C266   1.406       .  A
C265        C270   1.400       .  A
C265        H272   1.082       .  S
C266        C267   1.410       .  A
C267        C268   1.398       .  A
C267        F274   1.357       .  S
C268        C269   1.402       .  A
C268        H273   1.083       .  S
C269        C270   1.407       .  A
C270        F271   1.357       .  S
C275        C276   1.405       .  A
C275        C280   1.397       .  A
C275        H282   1.081       .  S
C276        C277   1.410       .  A
C277        C278   1.399       .  A
C277        F284   1.358       .  S
C278        C279   1.403       .  A
C278        H283   1.081       .  S
C279        C280   1.406       .  A
C280        F281   1.357       .  S
C285        C286   1.404       .  A
C285        C290   1.395       .  A
C285        H292   1.082       .  S
C286        C287   1.407       .  A
C287        C288   1.399       .  A
C287        F294   1.358       .  S
C288        C289   1.405       .  A
C288        H293   1.082       .  S
C289        C290   1.405       .  A
C290        F291   1.357       .  S
C295        C296   1.405       .  A
C295        C300   1.397       .  A
C295        H302   1.082       .  S
C296        C297   1.407       .  A
C297        C298   1.396       .  A
C297        F304   1.358       .  S
C298        C299   1.405       .  A
C298        H303   1.081       .  S
C299        C300   1.407       .  A
C300        F301   1.357       .  S
C305        C306   1.402       .  A
C305        C310   1.398       .  A
C305        H312   1.082       .  S
C306        C307   1.407       .  A
C307        C308   1.396       .  A
C307        F314   1.357       .  S
C308        C309   1.404       .  A
C308        H313   1.082       .  S
C309        C310   1.410       .  A
C310        F311   1.357       .  S
C315        C316   1.403       .  A
C315        C320   1.398       .  A
C315        H322   1.082       .  S
C316        C317   1.405       .  A
C317        C318   1.396       .  A
C317        F324   1.357       .  S
C318        C319   1.405       .  A
C318        H323   1.082       .  S
C319        C320   1.408       .  A
C320        F321   1.358       .  S
C325        C326   1.403       .  A
C325        C330   1.398       .  A
C325        H332   1.083       .  S
C326        C741   1.407       .  A
C327        C328   1.399       .  A
C327        C740   1.406       .  A
C327        F334   1.357       .  S
C328        C329   1.406       .  A
C328        H333   1.083       .  S
C329        C744   1.407       .  A
C330        C743   1.408       .  A
C330        F331   1.356       .  S
C335        C336   1.402       .  A
C335        C340   1.398       .  A
C335        H342   1.083       .  S
C336        C751   1.403       .  A
C337        C338   1.394       .  A
C337        C750   1.402       .  A
C337        F344   1.358       .  S
C338        C753   1.406       .  A
C338        H343   1.082       .  S
C339        C340   1.408       .  A
C339        C752   1.406       .  A
C340        F341   1.357       .  S
C345        C346   1.404       .  A
C345        C350   1.396       .  A
C345        H352   1.084       .  S
C346        C347   1.405       .  A
C347        C348   1.399       .  A
C347        F354   1.357       .  S
C348        C349   1.406       .  A
C348        H353   1.084       .  S
C349        C350   1.407       .  A
C350        F351   1.358       .  S
C355        C356   1.406       .  A
C355        C360   1.397       .  A
C355        H362   1.083       .  S
C356        C357   1.409       .  A
C357        C358   1.398       .  A
C357        F364   1.356       .  S
C358        C359   1.404       .  A
C358        H363   1.084       .  S
C359        C360   1.406       .  A
C360        F361   1.358       .  S
C365        C366   1.405       .  A
C365        C370   1.397       .  A
C365        H372   1.082       .  S
C366        C781   1.410   1_554  A
C367        C368   1.400       .  A
C367        C780   1.407       .  A
C367        F374   1.356       .  S
C368        C783   1.406       .  A
C368        H373   1.083       .  S
C369        C370   1.407       .  A
C369        C782   1.405   1_554  A
C370        F371   1.357       .  S
C375        C376   1.405       .  A
C375        C380   1.395       .  A
C375        H382   1.083       .  S
C376        C377   1.406       .  A
C377        C378   1.396       .  A
C377        F384   1.357       .  S
C378        C379   1.406       .  A
C378        H383   1.085       .  S
C379        C380   1.406       .  A
C380        F381   1.357       .  S
C385        C386   1.406       .  A
C385        C390   1.398       .  A
C385        H392   1.084       .  S
C386        C387   1.409       .  A
C387        C388   1.396       .  A
C387        F394   1.357       .  S
C388        C389   1.402       .  A
C388        H393   1.085       .  S
C389        C390   1.406       .  A
C390        F391   1.357       .  S
C395        C396   1.405       .  A
C395        C400   1.397       .  A
C395        H402   1.084       .  S
C396        C397   1.409       .  A
C397        C398   1.398       .  A
C397        F404   1.358       .  S
C398        C399   1.404       .  A
C398        H403   1.083       .  S
C399        C400   1.406       .  A
C400        F401   1.357       .  S
C405        C406   1.406       .  A
C405        C410   1.399       .  A
C405        H412   1.083       .  S
C406        C407   1.406       .  A
C407        C408   1.400       .  A
C407        F414   1.357       .  S
C408        C409   1.407       .  A
C408        H413   1.082       .  S
C409        C410   1.407       .  A
C410        F411   1.356       .  S
O415       Cu423   2.000       .  S
O415        C425   1.277       .  A
O416       Cu423   2.013       .  S
O416        C426   1.278       .  A
O417       Cu423   2.015       .  S
O417        C427   1.279       .  A
O418       Cu423   2.006       .  S
O418        C428   1.279       .  A
O419       Cu424   1.991       .  S
O419        C428   1.275       .  A
O420       Cu424   1.989       .  S
O420        C427   1.276       .  A
O421       Cu424   2.007       .  S
O421        C426   1.279       .  A
O422       Cu424   2.007       .  S
O422        C425   1.278       .  A
Cu423      Cu424   2.372       .  S
C425        C793   1.477       .  S
C426        C810   1.484       .  S
C427        C820   1.476       .  S
C428        C800   1.474       .  S
N429        N430   1.319       .  A
N429        C433   1.345       .  A
N429       Cu437   2.075       .  S
N430        C431   1.341       .  A
N430       Cu436   2.049       .  S
C431        C432   1.382       .  A
C431        H434   1.081       .  S
C432        C770   1.476       .  S
C432        C433   1.388       .  A
C433        H435   1.079       .  S
Cu437       N447   2.077       .  S
Cu438       N440   2.076       .  S
Cu438       N446   2.076       .  S
N439        N440   1.323       .  A
N439        C443   1.341       .  A
N440        C441   1.347       .  A
C441        C442   1.384       .  A
C441        H444   1.078       .  S
C442        C760   1.469       .  S
C442        C443   1.378       .  A
C443        H445   1.083       .  S
N446        C450   1.347       .  A
N447        C448   1.345       .  A
C448        C449   1.387       .  A
C448        H451   1.082       .  S
C449        C783   1.487       .  S
C450        H452   1.080       .  S
N453        N454   1.319   1_556  A
N453        C457   1.342       .  A
N453       Cu461   2.062   1_556  S
N454        C455   1.343   1_554  A
C455        C456   1.384       .  A
C455        H458   1.084       .  S
C456        C803   1.473       .  S
C456        C457   1.384       .  A
C457        H459   1.079       .  S
Cu460       N463   2.057       .  S
Cu461       N471   2.064       .  S
Cu462       N464   2.059       .  S
Cu462       N470   2.060       .  S
N463        N464   1.321       .  A
N463        C467   1.338       .  A
N464        C465   1.345       .  A
C465        C466   1.385       .  A
C465        H468   1.079       .  S
C466        C790   1.471       .  S
C466        C467   1.380       .  A
C467        H469   1.084       .  S
N470        C474   1.343       .  A
N471        C472   1.342       .  A
C472        H475   1.082       .  S
C473        C750   1.466       .  S
C473        C474   1.380       .  A
C474        H476   1.078       .  S
N477        N478   1.322       .  A
N477        C481   1.345       .  A
N477       Cu485   2.069       .  S
N478        C479   1.346       .  A
N478       Cu484   2.089       .  S
C479        C480   1.388       .  A
C479        H482   1.082       .  S
C480        C743   1.483       .  S
C480        C481   1.385       .  A
C481        H483   1.084       .  S
Cu484       N487   2.090       .  S
Cu485       N495   2.069       .  S
Cu486       N488   2.067       .  S
Cu486       N494   2.066       .  S
N487        N488   1.323       .  A
N487        C491   1.347       .  A
N488        C489   1.342       .  A
C489        C490   1.384       .  A
C489        H492   1.087       .  S
C490        C780   1.486       .  S
C490        C491   1.390       .  A
C491        H493   1.084       .  S
N494        N495   1.321       .  A
N494        C498   1.345       .  A
N495        C496   1.342       .  A
C496        C497   1.385       .  A
C496        H499   1.083       .  S
C497        C753   1.479       .  S
C497        C498   1.386       .  A
C498        H500   1.082       .  S
N501        N502   1.320       .  A
N501        C505   1.347       .  A
N501       Cu509   2.077       .  S
N502        C503   1.340       .  A
N502       Cu508   2.055       .  S
C503        C504   1.382       .  A
C503        H506   1.082       .  S
C504        C720   1.479       .  S
C504        C505   1.388       .  A
C505        H507   1.081       .  S
Cu509       N519   2.078       .  S
Cu510       N512   2.059       .  S
Cu510       N518   2.062       .  S
N511        N512   1.319       .  A
N511        C515   1.341       .  A
N512        C513   1.342       .  A
C513        C514   1.383       .  A
C513        H516   1.082       .  S
C514        C730   1.470       .  S
C514        C515   1.382       .  A
C515        H517   1.083       .  S
N518        C522   1.342       .  A
N519        C520   1.345       .  A
C520        C521   1.385       .  A
C520        H523   1.079       .  S
C521        C740   1.480       .  S
C522        H524   1.082       .  S
O525       Cu533   2.011       .  S
O525        C535   1.279       .  A
O526       Cu533   2.017   1_545  S
O526        C536   1.280       .  A
O527       Cu533   1.984   1_545  S
O527        C537   1.275       .  A
O528       Cu533   1.991       .  S
O528        C538   1.275       .  A
O529       Cu534   2.020   1_565  S
O529        C538   1.281       .  A
O530       Cu534   2.009       .  S
O530        C537   1.279       .  A
O531       Cu534   1.996       .  S
O531        C536   1.276       .  A
O532       Cu534   1.998   1_565  S
O532        C535   1.277       .  A
Cu533      Cu534   2.372   1_565  S
C535        C700   1.479       .  S
C536        C723   1.479       .  S
C537        C733   1.472       .  S
C538        C710   1.480       .  S
O539       Cu547   2.004       .  S
O539        C549   1.277       .  A
O540       Cu547   2.010   1_655  S
O540        C550   1.278       .  A
O541       Cu547   2.003   1_655  S
O541        C551   1.277       .  A
O542       Cu547   2.000       .  S
O542        C552   1.278       .  A
O543       Cu548   2.005       .  S
O543        C552   1.277       .  A
O544       Cu548   1.997   1_655  S
O544        C551   1.277       .  A
O545       Cu548   2.002   1_655  S
O545        C550   1.278       .  A
O546       Cu548   2.011       .  S
O546        C549   1.279       .  A
Cu547      Cu548   2.371       .  S
C549        C690   1.484       .  S
C550        C763   1.483       .  S
C551        C773   1.472       .  S
C552        C680   1.477       .  S
N553        N554   1.319   1_556  A
N553        C557   1.349       .  A
N553       Cu561   2.081   1_556  S
N554        C555   1.344   1_554  A
N554       Cu560   2.070       .  S
C555        C556   1.384       .  A
C555        H558   1.082       .  S
C556        C813   1.484       .  S
C556        C557   1.391       .  A
C557        H559   1.079       .  S
Cu561       N571   2.081       .  S
Cu562       N564   2.081       .  S
Cu562       N570   2.081       .  S
N563        N564   1.322       .  A
N563        C567   1.340       .  A
N564        C565   1.346       .  A
C565        C566   1.389       .  A
C565        H568   1.081       .  S
C566        C823   1.479       .  S
C566        C567   1.381       .  A
C567        H569   1.084       .  S
N570        C574   1.349       .  A
N571        C572   1.342       .  A
C572        C573   1.384       .  A
C572        H575   1.080   1_554  S
C573        C670   1.482       .  S
C574        H576   1.083       .  S
N577        N578   1.321       .  A
N577       Cu585   2.086       .  S
N578        C579   1.340       .  A
N578       Cu584   2.051       .  S
C579        C580   1.380       .  A
C579        H582   1.084       .  S
C580        C653   1.477       .  S
C581        H583   1.081       .  S
Cu584       N587   2.052       .  S
Cu585       N595   2.088       .  S
Cu586       N588   2.076       .  S
Cu586       N594   2.076       .  S
N587        N588   1.321       .  A
N587        C591   1.342       .  A
N588        C589   1.343       .  A
C589        C590   1.387       .  A
C589        H592   1.086       .  S
C590        C660   1.478       .  S
C590        C591   1.382       .  A
C591        H593   1.084       .  S
N594        N595   1.324       .  A
N594        C598   1.347       .  A
C596        C597   1.385       .  A
C596        H599   1.083       .  S
C597        C673   1.478       .  S
C598        H600   1.082       .  S
N601        N602   1.320       .  A
N601        C605   1.346       .  A
N601       Cu609   2.063       .  S
N602        C603   1.342       .  A
N602       Cu608   2.065       .  S
C603        C604   1.381       .  A
C603        H606   1.084       .  S
C604        C693   1.473       .  S
C604        C605   1.385       .  A
C605        H607   1.081       .  S
Cu609       N619   2.064       .  S
Cu610       N612   2.091       .  S
Cu610       N618   2.091       .  S
N611        N612   1.322       .  A
N611        C615   1.342       .  A
N612        C613   1.346       .  A
C613        C614   1.389       .  A
C613        H616   1.082       .  S
C614        C683   1.477       .  S
C614        C615   1.380       .  A
C615        H617   1.083       .  S
N618        C622   1.349       .  A
N619        C620   1.342       .  A
C620        C621   1.381       .  A
C620        H623   1.083       .  S
C621        C663   1.477       .  S
C622        H624   1.081       .  S
N625        N626   1.321       .  A
N625        C629   1.347       .  A
N625       Cu633   2.081       .  S
N626        C627   1.341       .  A
C627        C628   1.383       .  A
C627        H630   1.081       .  S
C628        C713   1.484       .  S
C628        C629   1.389       .  A
C629        H631   1.084       .  S
Cu632       N635   2.065       .  S
Cu633       N643   2.081       .  S
Cu634       N636   2.055       .  S
Cu634       N642   2.054       .  S
N635        N636   1.319       .  A
N635        C639   1.343       .  A
N636        C637   1.342       .  A
C637        C638   1.383       .  A
C637        H640   1.081       .  S
C638        C703   1.474       .  S
C638        C639   1.385       .  A
C639        H641   1.082       .  S
N642        C646   1.340       .  A
N643        C644   1.345       .  A
C644        H647   1.085       .  S
C645        C650   1.471       .  S
C645        C646   1.380       .  A
C646        H648   1.079       .  S
C649        C650   1.403       .  A
C649        C654   1.396       .  A
C649        H656   1.083       .  S
C651        C652   1.397       .  A
C651        F658   1.357       .  S
C652        H657   1.082       .  S
C653        C654   1.405       .  A
C654        F655   1.357       .  S
C659        C660   1.403       .  A
C659        C664   1.395       .  A
C659        H666   1.082       .  S
C661        C662   1.400       .  A
C661        F668   1.357       .  S
C662        H667   1.082       .  S
C663        C664   1.407       .  A
C664        F665   1.357       .  S
C669        C670   1.404       .  A
C669        C674   1.393       .  A
C669        H676   1.083       .  S
C671        C672   1.404       .  A
C671        F678   1.357       .  S
C672        H677   1.083       .  S
C673        C674   1.404       .  A
C674        F675   1.357   1_554  S
C679        C680   1.406       .  A
C679        C684   1.399       .  A
C679        H686   1.082       .  S
C680        C681   1.407       .  A
C681        C682   1.394       .  A
C681        F688   1.357       .  S
C682        C683   1.402       .  A
C682        H687   1.083       .  S
C683        C684   1.408       .  A
C684        F685   1.358       .  S
C689        C690   1.407       .  A
C689        C694   1.397       .  A
C689        H696   1.081       .  S
C690        C691   1.412       .  A
C691        C692   1.399       .  A
C691        F698   1.357       .  S
C692        C693   1.402       .  A
C692        H697   1.081       .  S
C693        C694   1.403       .  A
C694        F695   1.357       .  S
C699        C700   1.407       .  A
C699        C704   1.396       .  A
C699        H706   1.082       .  S
C700        C701   1.407       .  A
C701        C702   1.397       .  A
C701        F708   1.357       .  S
C702        C703   1.404       .  A
C702        H707   1.082       .  S
C703        C704   1.404       .  A
C704        F705   1.358       .  S
C709        C710   1.402       .  A
C709        C714   1.396       .  A
C709        H716   1.082       .  S
C710        C711   1.411       .  A
C711        C712   1.400       .  A
C711        F718   1.358       .  S
C712        C713   1.405       .  A
C712        H717   1.081       .  S
C713        C714   1.409       .  A
C714        F715   1.356       .  S
C719        C720   1.404       .  A
C719        C724   1.399       .  A
C719        H726   1.082       .  S
C720        C721   1.408       .  A
C721        C722   1.395       .  A
C721        F728   1.357       .  S
C722        C723   1.402       .  A
C722        H727   1.082       .  S
C723        C724   1.410       .  A
C724        F725   1.358       .  S
C729        C730   1.404       .  A
C729        C734   1.396       .  A
C729        H736   1.082       .  S
C730        C731   1.403       .  A
C731        C732   1.393       .  A
C731        F738   1.358       .  S
C732        C733   1.405       .  A
C732        H737   1.083       .  S
C733        C734   1.406       .  A
C734        F735   1.357       .  S
C739        C740   1.404       .  A
C739        C744   1.399       .  A
C739        H746   1.083       .  S
C741        C742   1.399       .  A
C741        F748   1.358       .  S
C742        C743   1.406       .  A
C742        H747   1.083       .  S
C744        F745   1.357       .  S
C749        C750   1.401       .  A
C749        C754   1.397       .  A
C749        H756   1.083       .  S
C751        C752   1.395       .  A
C751        F758   1.358       .  S
C752        H757   1.082       .  S
C753        C754   1.409       .  A
C754        F755   1.357       .  S
C759        C760   1.401       .  A
C759        C764   1.397       .  A
C759        H766   1.083       .  S
C760        C761   1.402       .  A
C761        C762   1.396       .  A
C761        F768   1.358       .  S
C762        C763   1.408       .  A
C762        H767   1.083       .  S
C763        C764   1.411       .  A
C764        F765   1.357       .  S
C769        C770   1.406       .  A
C769        C774   1.398       .  A
C769        H776   1.082       .  S
C770        C771   1.406       .  A
C771        C772   1.394       .  A
C771        F778   1.356       .  S
C772        C773   1.403       .  A
C772        H777   1.083       .  S
C773        C774   1.406       .  A
C774        F775   1.358       .  S
C779        C780   1.406       .  A
C779        C784   1.399       .  A
C779        H786   1.083       .  S
C781        C782   1.402       .  A
C781        F788   1.357       .  S
C782        H787   1.083       .  S
C783        C784   1.409       .  A
C784        F785   1.357       .  S
C789        C790   1.402       .  A
C789        C794   1.394       .  A
C789        H796   1.084       .  S
C790        C791   1.405       .  A
C791        C792   1.396       .  A
C791        F798   1.357       .  S
C792        C793   1.406       .  A
C792        H797   1.086       .  S
C793        C794   1.407       .  A
C794        F795   1.357       .  S
C799        C800   1.403       .  A
C799        C804   1.394       .  A
C799        H806   1.085       .  S
C800        C801   1.409       .  A
C801        C802   1.396       .  A
C801        F808   1.358       .  S
C802        C803   1.402       .  A
C802        H807   1.085       .  S
C803        C804   1.407       .  A
C804        F805   1.357       .  S
C809        C810   1.406       .  A
C809        C814   1.399       .  A
C809        H816   1.083       .  S
C810        C811   1.409       .  A
C811        C812   1.401       .  A
C811        F818   1.358       .  S
C812        C813   1.406       .  A
C812        H817   1.082       .  S
C813        C814   1.406       .  A
C814        F815   1.357       .  S
C819        C820   1.405       .  A
C819        C824   1.395       .  A
C819        H826   1.083       .  S
C820        C821   1.405       .  A
C821        C822   1.397       .  A
C821        F828   1.357       .  S
C822        C823   1.407       .  A
C822        H827   1.082       .  S
C823        C824   1.406       .  A
C824        F825   1.356       .  S
