geometry optimzed in LAMMPS
_audit_creation_date              2020-12-01 
_audit_creation_method            'lammps2cif' 
_symmetry_space_group_name_H-M    'P1' 
_symmetry_Int_Tables_number       1 
_symmetry_cell_setting            triclinic 
loop_ 
_symmetry_equiv_pos_as_xyz 
  x,y,z 
_cell_length_a                    59.44920487 
_cell_length_b                    59.92942649680316 
_cell_length_c                    41.5228735286201 
_cell_angle_alpha                 89.87912818493729 
_cell_angle_beta                  89.81922106459935 
_cell_angle_gamma                 143.6157512512073 
loop_ 
_atom_site_label 
_atom_site_type_symbol 
_atom_site_fract_x 
_atom_site_fract_y 
_atom_site_fract_z 
_atom_site_charge 
N1          N  0.12782952  0.55808401  0.29819108    -0.27200
N2          N  0.10680630  0.55589589  0.31410739    -0.35100
C3          C  0.11494798  0.56115095  0.34564156     0.01100
C4          C  0.14237429  0.56685755  0.34965941     0.07100
C5          C  0.14991871  0.56471469  0.31916985    -0.06000
H6          H  0.10148443  0.56026963  0.36427818     0.07800
H7          H  0.16966911  0.56740526  0.31276996     0.09000
Cu8        Cu  0.06726473  0.54459920  0.29210356     0.44200
Cu9        Cu  0.12477793  0.55136772  0.24877287     0.42000
Cu10       Cu  0.05574345  0.53000470  0.20550862     0.43900
N11         N  0.02872845  0.53206358  0.26559575    -0.34600
N12         N  0.02387920  0.52621111  0.23417265    -0.28900
C13         C  0.99676848  0.51900160  0.22488892    -0.05000
C14         C  0.98424458  0.52059366  0.25178467     0.07200
C15         C  0.00512877  0.52893585  0.27708042     0.01000
H16         H  0.98743232  0.51373455  0.20031521     0.08700
H17         H  0.00355938  0.53276193  0.30206050     0.07800
N18         N  0.09352892  0.53816415  0.18333719    -0.36100
N19         N  0.11833297  0.54566424  0.19921664    -0.28300
C20         C  0.13996409  0.55162263  0.17800228    -0.03500
C21         C  0.12830931  0.54775767  0.14730773     0.05100
C22         C  0.09888476  0.53929506  0.15152057     0.03200
H23         H  0.16357509  0.55990679  0.18440497     0.08300
H24         H  0.08357649  0.53575757  0.13282813     0.07100
C25         C  0.20337744  0.58375164  0.02819758     0.03200
C26         C  0.23975225  0.60333491  0.02843355    -0.13000
C27         C  0.25933805  0.61514160  0.49943335     0.00700
C28         C  0.24231320  0.60716822  0.47011316    -0.11500
C29         C  0.20593866  0.58759320  0.46972181     0.03200
C30         C  0.18646687  0.57573034  0.49879139    -0.10900
H31         H  0.25344730  0.61082026  0.05118995     0.08800
H32         H  0.25796309  0.61757822  0.44773533     0.06300
H33         H  0.15876985  0.56144522  0.49859173     0.06100
N34         N  0.85224192  0.52659318  0.20228932    -0.27200
N35         N  0.85301568  0.50662714  0.19102031    -0.35100
C36         C  0.84037395  0.49654841  0.16060787     0.01100
C37         C  0.83245088  0.51199686  0.15145096     0.07100
C38         C  0.84073927  0.53120180  0.17866159    -0.06000
H39         H  0.83723715  0.47913955  0.14625860     0.07800
H40         H  0.83845334  0.54724787  0.18132356     0.09000
Cu41       Cu  0.87676832  0.49886063  0.21521396     0.44200
Cu42       Cu  0.86141970  0.54145572  0.25068229     0.42000
Cu43       Cu  0.90300106  0.52972983  0.29691616     0.43900
N44         N  0.91325261  0.50731572  0.24026189    -0.34600
N45         N  0.92291547  0.51874788  0.27045859    -0.28900
C46         C  0.94875192  0.52413939  0.27937180    -0.05000
C47         C  0.95605142  0.51615649  0.25339209     0.07200
C48         C  0.93306588  0.50557843  0.22897407     0.01000
H49         H  0.96223764  0.53445763  0.30269793     0.08700
H50         H  0.93159711  0.49818821  0.20456115     0.07800
N51         N  0.87768144  0.53725665  0.31757120    -0.36100
N52         N  0.86209494  0.54124220  0.30098087    -0.28300
C53         C  0.84316471  0.53957376  0.32156780    -0.03500
C54         C  0.84723106  0.53443914  0.35248801     0.05100
C55         C  0.86943826  0.53331521  0.34897727     0.03200
H56         H  0.82533449  0.53911245  0.31433923     0.08300
H57         H  0.87643274  0.52695513  0.36758512     0.07100
C58         C  0.76648781  0.49097160  0.47038600     0.03200
C59         C  0.72744755  0.46417501  0.47091284    -0.13000
C60         C  0.70686493  0.44595941  0.99973445     0.00700
C61         C  0.72533745  0.45413750  0.02795309    -0.11500
C62         C  0.76506592  0.48352076  0.02857881     0.03200
C63         C  0.78553385  0.50239017  0.99948781    -0.10900
H64         H  0.71273909  0.45578931  0.44859298     0.08800
H65         H  0.70872198  0.43803712  0.04964890     0.06300
H66         H  0.81603217  0.52466790  0.99909137     0.06100
N67         N  0.52375909  0.18028983  0.30347302    -0.27200
N68         N  0.52714047  0.16392205  0.31931624    -0.35100
C69         C  0.52945813  0.17009098  0.35103592     0.01100
C70         C  0.52723736  0.19115853  0.35533102     0.07100
C71         C  0.52366749  0.19715438  0.32472510    -0.06000
H72         H  0.53351906  0.16083065  0.36952371     0.07800
H73         H  0.52262313  0.21380730  0.31829372     0.09000
Cu74       Cu  0.53006848  0.13523773  0.29709749     0.44200
Cu75       Cu  0.52335023  0.18227546  0.25350549     0.42000
Cu76       Cu  0.53493840  0.13940702  0.21020347     0.43900
N77         N  0.53011629  0.10645888  0.26930351    -0.34600
N78         N  0.53182422  0.10797910  0.23748266    -0.28900
C79         C  0.52925124  0.08485025  0.22663227    -0.05000
C80         C  0.52569361  0.06789960  0.25288237     0.07200
C81         C  0.52643388  0.08230353  0.27955332     0.01000
H82         H  0.52894962  0.07999900  0.20145559     0.08700
H83         H  0.52344580  0.07500467  0.30453426     0.07800
N84         N  0.53491512  0.17044314  0.18817106    -0.36100
N85         N  0.52989484  0.18543908  0.20378771    -0.28300
C86         C  0.53112514  0.20337976  0.18249430    -0.03500
C87         C  0.53732173  0.19951496  0.15214977     0.05100
C88         C  0.53959831  0.17852686  0.15659748     0.03200
H89         H  0.52811840  0.21841788  0.18866284     0.08300
H90         H  0.54423804  0.16972118  0.13824513     0.07100
C91         C  0.54841333  0.25702828  0.47355650     0.03200
C92         C  0.56614752  0.29216438  0.47323731    -0.13000
C93         C  0.57685998  0.31085594  0.00218025     0.00700
C94         C  0.56923922  0.29403536  0.03153560    -0.11500
C95         C  0.55135782  0.25884977  0.03206284     0.03200
C96         C  0.54076330  0.24031127  0.00304434    -0.10900
H97         H  0.57361996  0.30589620  0.45044941     0.08800
H98         H  0.57889270  0.30911237  0.05383981     0.06300
H99         H  0.52832148  0.21383639  0.00332997     0.06100
N100        N  0.46884858  0.88742278  0.30005947    -0.27200
N101        N  0.47598424  0.91163654  0.31620045    -0.35100
C102        C  0.47036588  0.90334074  0.34780841     0.01100
C103        C  0.45930531  0.87255147  0.35165462     0.07100
C104        C  0.45865508  0.86315125  0.32098605    -0.06000
H105        H  0.47401966  0.91855354  0.36657392     0.07800
H106        H  0.45100361  0.84019594  0.31435631     0.09000
Cu107      Cu  0.49248822  0.95451499  0.29459517     0.44200
Cu108      Cu  0.47180255  0.88758766  0.25027551     0.42000
Cu109      Cu  0.49720082  0.95863148  0.20743994     0.43900
N110        N  0.50649534  0.99367266  0.26756408    -0.34600
N111        N  0.50824091  0.99523714  0.23573835    -0.28900
C112        C  0.51621322  0.02244724  0.22564695    -0.05000
C113        C  0.51956611  0.03869675  0.25240725     0.07200
C114        C  0.51331655  0.01982037  0.27856113     0.01000
H115        H  0.51839646  0.02918336  0.20063934     0.08700
H116        H  0.51274972  0.02404390  0.30371323     0.07800
N117        N  0.48206973  0.91699521  0.18478405    -0.36100
N118        N  0.47297525  0.89123542  0.20048177    -0.28300
C119        C  0.46330392  0.86771988  0.17910481    -0.03500
C120        C  0.46641431  0.87917880  0.14850552     0.05100
C121        C  0.47837820  0.91049273  0.15296222     0.03200
H122        H  0.45387318  0.84354873  0.18539960     0.08300
H123        H  0.48343268  0.92695937  0.13447534     0.07100
C124        C  0.42675981  0.80261722  0.03046603     0.03200
C125        C  0.40467951  0.76547328  0.03103450    -0.13000
C126        C  0.39269980  0.74622796  0.00208952     0.00700
C127        C  0.40278716  0.76417207  0.47265045    -0.11500
C128        C  0.42475820  0.80116327  0.47197935     0.03200
C129        C  0.43694184  0.82041965  0.00086291    -0.10900
H130        H  0.39574571  0.75120550  0.05387735     0.08800
H131        H  0.39255060  0.74896282  0.45030886     0.06300
H132        H  0.45339724  0.84884170  0.00033975     0.06100
C133        C  0.35064965  0.65451769  0.50014711     0.03200
C134        C  0.31172339  0.62855885  0.49932337    -0.13000
C135        C  0.29974975  0.64133864  0.50007786     0.00700
C136        C  0.32663957  0.67992218  0.50152326    -0.11500
C137        C  0.36535754  0.70589922  0.50235915     0.03200
C138        C  0.37741693  0.69322971  0.50172203    -0.10900
H139        H  0.29093797  0.59866673  0.49823729     0.08800
H140        H  0.31739212  0.68979822  0.50177634     0.06300
H141        H  0.40742561  0.71335421  0.50219864     0.06100
N142        N  0.41216742  0.59077115  0.19991672    -0.27200
N143        N  0.42129388  0.57991391  0.18351031    -0.35100
C144        C  0.41826622  0.58184821  0.15179507     0.01100
C145        C  0.40674913  0.59456719  0.14821119     0.07100
C146        C  0.40317042  0.59997509  0.17912493    -0.06000
H147        H  0.42420184  0.57474768  0.13279239     0.07800
H148        H  0.39476981  0.60994579  0.18598473     0.09000
Cu149      Cu  0.43767588  0.56327254  0.20531493     0.44200
Cu150      Cu  0.41259248  0.59281549  0.24986257     0.42000
Cu151      Cu  0.44214027  0.56694898  0.29317870     0.43900
N152        N  0.45214466  0.54709944  0.23284536    -0.34600
N153        N  0.45399967  0.54860126  0.26467070    -0.28900
C154        C  0.46303814  0.53514045  0.27481363    -0.05000
C155        C  0.46692264  0.52455696  0.24814771     0.07200
C156        C  0.45989059  0.53261961  0.22197660     0.01000
H157        H  0.46588522  0.53262230  0.29981739     0.08700
H158        H  0.45984256  0.52781643  0.19685245     0.07800
N159        N  0.42580799  0.58350491  0.31576158    -0.36100
N160        N  0.41494353  0.59280019  0.29975726    -0.28300
C161        C  0.40548142  0.60133557  0.32089233    -0.03500
C162        C  0.41050149  0.59715957  0.35174278     0.05100
C163        C  0.42346946  0.58586231  0.34759269     0.03200
H164        H  0.39549283  0.60978053  0.31429968     0.08300
H165        H  0.43027254  0.57941971  0.36633480     0.07100
C166        C  0.38125813  0.62203383  0.02944250     0.03200
C167        C  0.36945761  0.63495382  0.02925261    -0.13000
C168        C  0.36339434  0.64124334  0.50000899     0.00700
C169        C  0.36979239  0.63510749  0.47079162    -0.11500
C170        C  0.38155846  0.62205855  0.47074656     0.03200
C171        C  0.38678380  0.61518385  0.00022879    -0.10900
H172        H  0.36490794  0.64000004  0.05184067     0.08800
H173        H  0.36569427  0.64052859  0.44816177     0.06300
H174        H  0.39558733  0.60489032  0.00045124     0.05300
N175        N  0.52609538  0.43682190  0.29529301    -0.27200
N176        N  0.51881653  0.44942571  0.31171640    -0.35100
C177        C  0.52453321  0.45000683  0.34323733     0.01100
C178        C  0.53594959  0.43715714  0.34678240     0.07100
C179        C  0.53658555  0.42901444  0.31591327    -0.06000
H180        H  0.52100633  0.45942320  0.36214475     0.07800
H181        H  0.54466634  0.41875639  0.30892022     0.09000
Cu182      Cu  0.50274220  0.46649470  0.29021364     0.44200
Cu183      Cu  0.52296890  0.43229926  0.24541343     0.42000
Cu184      Cu  0.49500852  0.46007296  0.20275681     0.43900
N185        N  0.48908462  0.48360407  0.26295515    -0.34600
N186        N  0.48619248  0.48121247  0.23119967    -0.28900
C187        C  0.47787489  0.49535561  0.22109167    -0.05000
C188        C  0.47540502  0.50720282  0.24771847     0.07200
C189        C  0.48263569  0.49927474  0.27383393     0.01000
H190        H  0.47413290  0.49707574  0.19614706     0.08700
H191        H  0.48342358  0.50471692  0.29892398     0.07800
N192        N  0.50973199  0.44212679  0.17981754    -0.36100
N193        N  0.52032486  0.43241870  0.19551106    -0.28300
C194        C  0.53074165  0.42503848  0.17406613    -0.03500
C195        C  0.52640180  0.43022129  0.14341437     0.05100
C196        C  0.51299461  0.44100289  0.14791500     0.03200
H197        H  0.54176650  0.41758763  0.18031723     0.08300
H198        H  0.50745183  0.44886285  0.12941536     0.07100
C199        C  0.57452852  0.42380214  0.46622461     0.03200
C200        C  0.56525981  0.42756691  0.49490921    -0.13000
C201        C  0.57063982  0.42148069  0.02486364     0.00700
C202        C  0.58577331  0.41188267  0.02596471    -0.11500
C203        C  0.59563305  0.40859071  0.49741510     0.03200
C204        C  0.59010954  0.41470799  0.46761090    -0.10900
H205        H  0.55312417  0.43447100  0.49389172     0.08800
H206        H  0.58969374  0.40681849  0.04900230     0.06300
H207        H  0.59725613  0.41171825  0.44550722     0.06100
C208        C  0.61119793  0.39818543  0.99866062     0.03200
C209        C  0.58674069  0.36014877  0.00006814    -0.13000
C210        C  0.60170120  0.35041449  0.00146333     0.00700
C211        C  0.64105993  0.37870951  0.00175856    -0.11500
C212        C  0.66557986  0.41660879  0.99997020     0.03200
C213        C  0.65061206  0.42632287  0.99827374    -0.10900
H214        H  0.55630571  0.33830247  0.99999284     0.08800
H215        H  0.65261937  0.37118779  0.00287989     0.06300
H216        H  0.66955948  0.45567107  0.99697377     0.06100
C217        C  0.58719967  0.45400518  0.07652712    -0.01800
C218        C  0.55934464  0.42409936  0.05500474     0.07900
C219        C  0.52061535  0.39670964  0.06222061    -0.01900
C220        C  0.50983780  0.39898161  0.09094057    -0.01900
C221        C  0.53767300  0.42853187  0.11266825     0.08000
C222        C  0.57638555  0.45619467  0.10526959    -0.02100
Br223      Br  0.61470194  0.49787969  0.13405737    -0.00700
Br224      Br  0.64026710  0.49265392  0.06615283    -0.00700
Br225      Br  0.45684262  0.36086873  0.10108977    -0.00700
Br226      Br  0.48219575  0.35524568  0.03327280    -0.00700
C227        C  0.57818585  0.46636251  0.39470852    -0.01800
C228        C  0.54641758  0.43389609  0.37697332     0.07900
C229        C  0.52479662  0.39830335  0.38804791    -0.01900
C230        C  0.53463830  0.39515966  0.41680653    -0.01900
C231        C  0.56597387  0.42754064  0.43479995     0.08000
C232        C  0.58795097  0.46317246  0.42351440    -0.02100
Br233      Br  0.63208722  0.50768875  0.44718541    -0.00700
Br234      Br  0.60915749  0.51542479  0.37907425    -0.00700
Br235      Br  0.50443035  0.34626594  0.43214904    -0.00700
Br236      Br  0.48034011  0.35350176  0.36483125    -0.00700
C237        C  0.43278167  0.63116102  0.40402784    -0.01800
C238        C  0.40296468  0.60307592  0.38244049     0.07900
C239        C  0.36604939  0.58125916  0.38986724    -0.01900
C240        C  0.35901180  0.58746415  0.41863499    -0.01900
C241        C  0.38894620  0.61592071  0.44001088     0.08000
C242        C  0.42589826  0.63784937  0.43248677    -0.02100
Br243      Br  0.46764344  0.67836309  0.46047586    -0.00700
Br244      Br  0.48355325  0.66165611  0.39412205    -0.00700
Br245      Br  0.30792660  0.55576853  0.42936548    -0.00700
Br246      Br  0.32453377  0.54146355  0.36140663    -0.00700
C247        C  0.36518581  0.57178302  0.10204546    -0.01800
C248        C  0.40026912  0.60160970  0.11782400     0.07900
C249        C  0.42902251  0.63827435  0.10475873    -0.01900
C250        C  0.42267222  0.64510699  0.07601513    -0.01900
C251        C  0.38757708  0.61524562  0.06023290     0.08000
C252        C  0.35883318  0.57860921  0.07331644    -0.02100
Br253      Br  0.31065468  0.53793275  0.05186495    -0.00700
Br254      Br  0.32580440  0.52161482  0.11992704    -0.00700
Br255      Br  0.46212059  0.69522315  0.05794791    -0.00700
Br256      Br  0.47736712  0.67891029  0.12596171    -0.00700
C257        C  0.40744103  0.81366779  0.42784687    -0.01800
C258        C  0.43339188  0.81907885  0.44101354     0.07900
C259        C  0.46750019  0.84149446  0.42465116    -0.01900
C260        C  0.47582447  0.85872297  0.39516803    -0.01900
C261        C  0.45012567  0.85373532  0.38215095     0.08000
C262        C  0.41587056  0.83111373  0.39847746    -0.02100
Br263      Br  0.38011397  0.82330751  0.38021116    -0.00700
Br264      Br  0.36036260  0.78227558  0.45013106    -0.00700
Br265      Br  0.52288943  0.88997491  0.37303290    -0.00700
Br266      Br  0.50268633  0.84847527  0.44282133    -0.00700
C267        C  0.41602291  0.82417827  0.07098170    -0.01800
C268        C  0.43692541  0.82209834  0.06076451     0.07900
C269        C  0.46798679  0.83943649  0.07894428    -0.01900
C270        C  0.47791328  0.85850492  0.10749162    -0.01900
C271        C  0.45689719  0.86045516  0.11785135     0.08000
C272        C  0.42611009  0.84351602  0.09934443    -0.02100
Br273      Br  0.39677091  0.84553606  0.11328585    -0.00700
Br274      Br  0.37289612  0.79962100  0.04639589    -0.00700
Br275      Br  0.52139183  0.88341229  0.13162855    -0.00700
Br276      Br  0.49734850  0.83767700  0.06422459    -0.00700
C277        C  0.50647565  0.20999572  0.42914666    -0.01800
C278        C  0.54269125  0.24021415  0.44308610     0.07900
C279        C  0.57369675  0.25406197  0.42837653    -0.01900
C280        C  0.56856079  0.23786620  0.39974267    -0.01900
C281        C  0.53238453  0.20775092  0.38565054     0.08000
C282        C  0.50133479  0.19381413  0.40041257    -0.02100
Br283      Br  0.45159206  0.15182686  0.38174134    -0.00700
Br284      Br  0.46412624  0.19107158  0.44942842    -0.00700
Br285      Br  0.61137306  0.25756861  0.37946610    -0.00700
Br286      Br  0.62319747  0.29494431  0.44787280    -0.00700
C287        C  0.50876768  0.19927952  0.10781167    -0.01800
C288        C  0.54085897  0.21463940  0.12142635     0.07900
C289        C  0.57623261  0.24416482  0.10546423    -0.01900
C290        C  0.57955456  0.25849403  0.07614395    -0.01900
C291        C  0.54753618  0.24339555  0.06272257     0.08000
C292        C  0.51209912  0.21360861  0.07845837    -0.02100
Br293      Br  0.46826041  0.19268714  0.05979024    -0.00700
Br294      Br  0.45997431  0.15773669  0.12884237    -0.00700
Br295      Br  0.62783163  0.29832824  0.05389625    -0.00700
Br296      Br  0.62039713  0.26567891  0.12415347    -0.00700
C297        C  0.79752410  0.48622807  0.39401794    -0.01800
C298        C  0.82518185  0.52310123  0.38161242     0.07900
C299        C  0.83235665  0.54911457  0.39765172    -0.01900
C300        C  0.81264789  0.53857537  0.42639842    -0.01900
C301        C  0.78594463  0.50211372  0.43926809     0.08000
C302        C  0.77825218  0.47589308  0.42285495    -0.02100
Br303      Br  0.74207356  0.42589684  0.44044862    -0.00700
Br304      Br  0.78503872  0.44922388  0.37113395    -0.00700
Br305      Br  0.82175978  0.57373130  0.44806618    -0.00700
Br306      Br  0.87021142  0.59956970  0.38090460    -0.00700
C307        C  0.81105626  0.49699674  0.06142131    -0.01800
C308        C  0.78452594  0.49350210  0.05955227     0.07900
C309        C  0.77559574  0.49837978  0.08794788    -0.01900
C310        C  0.78935045  0.50219653  0.11801671    -0.01900
C311        C  0.81725686  0.50752225  0.11970306     0.08000
C312        C  0.82951000  0.50705719  0.09068126    -0.02100
Br313      Br  0.87350659  0.52291746  0.08965339    -0.00700
Br314      Br  0.82028624  0.48484079  0.02513318    -0.00700
Br315      Br  0.76624720  0.49608684  0.15640691    -0.00700
Br316      Br  0.74596761  0.50188300  0.08606357    -0.00700
C317        C  0.14703548  0.54237197  0.39377716    -0.01800
C318        C  0.15870059  0.57219259  0.38029428     0.07900
C319        C  0.18557611  0.60691704  0.39630382    -0.01900
C320        C  0.20098049  0.61190422  0.42564126    -0.01900
C321        C  0.18947131  0.58213841  0.43903916     0.08000
C322        C  0.16224852  0.54727921  0.42323107    -0.02100
Br323      Br  0.14587904  0.50633885  0.44204852    -0.00700
Br324      Br  0.10957397  0.49454280  0.37220512    -0.00700
Br325      Br  0.23737018  0.65928157  0.44786889    -0.00700
Br326      Br  0.20188323  0.64788423  0.37763158    -0.00700
C327        C  0.16367580  0.54183786  0.07625065    -0.01800
C328        C  0.18432775  0.57450183  0.05881589     0.07900
C329        C  0.18696863  0.59858270  0.07059244    -0.01900
C330        C  0.16860804  0.58979037  0.09956095    -0.01900
C331        C  0.14734635  0.55674438  0.11678366     0.08000
C332        C  0.14521991  0.53296473  0.10523741    -0.02100
Br333      Br  0.11639013  0.48785442  0.12877460    -0.00700
Br334      Br  0.16053562  0.50923570  0.06009196    -0.00700
Br335      Br  0.17418165  0.62404592  0.11641818    -0.00700
Br336      Br  0.21653247  0.64411200  0.04727842    -0.00700
N337        N  0.12784202  0.55810316  0.79817913    -0.27200
N338        N  0.10682209  0.55592228  0.81408945    -0.35100
C339        C  0.11496394  0.56118367  0.84562360     0.01100
C340        C  0.14238691  0.56688709  0.84964873     0.07100
C341        C  0.14992981  0.56473561  0.81916249    -0.06000
H342        H  0.10149987  0.56030724  0.86425797     0.07800
H343        H  0.16967471  0.56741993  0.81276906     0.09000
Cu344      Cu  0.06728275  0.54462308  0.79207737     0.44200
Cu345      Cu  0.12478438  0.55137212  0.74876309     0.42000
Cu346      Cu  0.05575026  0.53000726  0.70548650     0.43900
N347        N  0.02874327  0.53208045  0.76556889    -0.34600
N348        N  0.02388907  0.52622077  0.73414676    -0.28900
C349        C  0.99677509  0.51900696  0.72486393    -0.05000
C350        C  0.98425456  0.52060352  0.75175945     0.07200
C351        C  0.00514407  0.52895295  0.77705362     0.01000
H352        H  0.98743315  0.51373245  0.70029069     0.08700
H353        H  0.00357811  0.53278349  0.80203376     0.07800
N354        N  0.09353168  0.53815633  0.68332357    -0.36100
N355        N  0.11833431  0.54565622  0.69920768    -0.28300
C356        C  0.13996258  0.55160729  0.67799728    -0.03500
C357        C  0.12830811  0.54773778  0.64730066     0.05100
C358        C  0.09888716  0.53928047  0.65150915     0.03200
H359        H  0.16357311  0.55989111  0.68440363     0.08300
H360        H  0.08357705  0.53574197  0.63280860     0.07100
C361        C  0.20337692  0.58371815  0.52819738     0.03200
C362        C  0.23975749  0.60331390  0.52843436    -0.13000
C363        C  0.25932838  0.61515422  0.99943129     0.00700
C364        C  0.24230558  0.60718642  0.97011211    -0.11500
C365        C  0.20593759  0.58762471  0.96972211     0.03200
C366        C  0.18646918  0.57576940  0.99879234    -0.10900
H367        H  0.25345564  0.61080597  0.55119346     0.08800
H368        H  0.25795231  0.61758898  0.94773286     0.06300
H369        H  0.15877913  0.56149332  0.99859330     0.06100
N370        N  0.85224249  0.52659263  0.70228775    -0.27200
N371        N  0.85300969  0.50662186  0.69101799    -0.35100
C372        C  0.84036476  0.49654208  0.66060628     0.01100
C373        C  0.83244697  0.51199568  0.65145104     0.07100
C374        C  0.84074103  0.53120422  0.67866144    -0.06000
H375        H  0.83722348  0.47913141  0.64625768     0.07800
H376        H  0.83846078  0.54725264  0.68132389     0.09000
Cu377      Cu  0.87676165  0.49885258  0.71520634     0.44200
Cu378      Cu  0.86142685  0.54145882  0.75067999     0.42000
Cu379      Cu  0.90300465  0.52972687  0.79690682     0.43900
N380        N  0.91325253  0.50731340  0.74024743    -0.34600
N381        N  0.92291910  0.51874765  0.77044335    -0.28900
C382        C  0.94876003  0.52414419  0.77935206    -0.05000
C383        C  0.95605849  0.51616227  0.75337009     0.07200
C384        C  0.93306772  0.50557952  0.72895531     0.01000
H385        H  0.96224886  0.53446471  0.80267626     0.08700
H386        H  0.93159671  0.49818884  0.70454258     0.07800
N387        N  0.87768698  0.53725422  0.81756657    -0.36100
N388        N  0.86210220  0.54124277  0.80097813    -0.28300
C389        C  0.84317261  0.53957393  0.82156639    -0.03500
C390        C  0.84723709  0.53443577  0.85248556     0.05100
C391        C  0.86944303  0.53331045  0.84897269     0.03200
H392        H  0.82534297  0.53911446  0.81433896     0.08300
H393        H  0.87643639  0.52694764  0.86757988     0.07100
C394        C  0.76648964  0.49096380  0.97038235     0.03200
C395        C  0.72744945  0.46416787  0.97090860    -0.13000
C396        C  0.70686309  0.44596567  0.49973817     0.00700
C397        C  0.72533575  0.45414433  0.52795703    -0.11500
C398        C  0.76506421  0.48352785  0.52858214     0.03200
C399        C  0.78553185  0.50239739  0.49949144    -0.10900
H400        H  0.71274272  0.45578313  0.94859093     0.08800
H401        H  0.70872119  0.43804466  0.54965210     0.06300
H402        H  0.81603230  0.52467598  0.49909487     0.06100
N403        N  0.52375497  0.18028852  0.80346943    -0.27200
N404        N  0.52713260  0.16391795  0.81931226    -0.35100
C405        C  0.52944760  0.17008371  0.85103290     0.01100
C406        C  0.52722882  0.19115297  0.85532766     0.07100
C407        C  0.52366322  0.19715316  0.82472190    -0.06000
H408        H  0.53350524  0.16082276  0.86951694     0.07800
H409        H  0.52262215  0.21380700  0.81829155     0.09000
Cu410      Cu  0.53006112  0.13523458  0.79709463     0.44200
Cu411      Cu  0.52335088  0.18227734  0.75350173     0.42000
Cu412      Cu  0.53492803  0.13939772  0.71020046     0.43900
N413        N  0.53010890  0.10645506  0.76930423    -0.34600
N414        N  0.53181444  0.10797124  0.73748359    -0.28900
C415        C  0.52924238  0.08484220  0.72663708    -0.05000
C416        C  0.52568815  0.06789610  0.75288910     0.07200
C417        C  0.52642910  0.08230231  0.77955864     0.01000
H418        H  0.52894005  0.07998802  0.70145917     0.08700
H419        H  0.52344438  0.07500899  0.80453541     0.07800
N420        N  0.53491180  0.17043991  0.68816725    -0.36100
N421        N  0.52989597  0.18543977  0.70378416    -0.28300
C422        C  0.53112968  0.20338347  0.68249101    -0.03500
C423        C  0.53732403  0.19951638  0.65214611     0.05100
C424        C  0.53959558  0.17852429  0.65659393     0.03200
H425        H  0.52812647  0.21842280  0.68865913     0.08300
H426        H  0.54423240  0.16971464  0.63823916     0.07100
C427        C  0.54840898  0.25701971  0.97355683     0.03200
C428        C  0.56614509  0.29215640  0.97323656    -0.13000
C429        C  0.57685903  0.31086152  0.50218187     0.00700
C430        C  0.56923822  0.29404020  0.53153682    -0.11500
C431        C  0.55135957  0.25885564  0.53206262     0.03200
C432        C  0.54076783  0.24031976  0.50304354    -0.10900
H433        H  0.57361717  0.30588787  0.95044747     0.08800
H434        H  0.57888914  0.30911463  0.55384021     0.06300
H435        H  0.52832630  0.21384252  0.50332836     0.06100
N436        N  0.46887040  0.88743539  0.80007021    -0.27200
N437        N  0.47600894  0.91164994  0.81621387    -0.35100
C438        C  0.47039860  0.90335691  0.84782257     0.01100
C439        C  0.45934057  0.87256838  0.85166501     0.07100
C440        C  0.45868335  0.86316668  0.82099483    -0.06000
H441        H  0.47405319  0.91856660  0.86658718     0.07800
H442        H  0.45102821  0.84020754  0.81436147     0.09000
Cu443      Cu  0.49250264  0.95452459  0.79461258     0.44200
Cu444      Cu  0.47180700  0.88759075  0.75028524     0.42000
Cu445      Cu  0.49719758  0.95862995  0.70745740     0.43900
N446        N  0.50650071  0.99367721  0.76758043    -0.34600
N447        N  0.50824086  0.99523681  0.73575463    -0.28900
C448        C  0.51620856  0.02244320  0.72566007    -0.05000
C449        C  0.51956398  0.03869560  0.75241939     0.07200
C450        C  0.51332087  0.01982490  0.77857467     0.01000
H451        H  0.51838596  0.02917312  0.70065519     0.08700
H452        H  0.51275780  0.02405287  0.80372904     0.07800
N453        N  0.48205781  0.91699111  0.68479765    -0.36100
N454        N  0.47296453  0.89123123  0.70049191    -0.28300
C455        C  0.46328660  0.86771313  0.67911238    -0.03500
C456        C  0.46639218  0.87917232  0.64851511     0.05100
C457        C  0.47835974  0.91048803  0.65297508     0.03200
H458        H  0.45385783  0.84354444  0.68540351     0.08300
H459        H  0.48341303  0.92695395  0.63449319     0.07100
C460        C  0.42673624  0.80262380  0.53046609     0.03200
C461        C  0.40466668  0.76548469  0.53103630    -0.13000
C462        C  0.39268817  0.74623841  0.50209282     0.00700
C463        C  0.40280801  0.76416722  0.97264818    -0.11500
C464        C  0.42478835  0.80116247  0.97197902     0.03200
C465        C  0.43691014  0.82042204  0.50086211    -0.10900
H466        H  0.39574104  0.75122060  0.55388073     0.08800
H467        H  0.39256853  0.74895830  0.95030517     0.06300
H468        H  0.45335791  0.84883820  0.50033760     0.06100
C469        C  0.35061070  0.65447885  0.00012835     0.03200
C470        C  0.31168878  0.62853541  0.99930991    -0.13000
C471        C  0.29973468  0.64133442  0.00007329     0.00700
C472        C  0.32663957  0.67992153  0.00152289    -0.11500
C473        C  0.36535350  0.70588388  0.00235290     0.03200
C474        C  0.37739298  0.69319486  0.00170589    -0.10900
H475        H  0.29089087  0.59863928  0.99822236     0.08800
H476        H  0.31740646  0.68981277  0.00178278     0.06300
H477        H  0.40740059  0.71330917  0.00217938     0.06100
N478        N  0.41226875  0.59086128  0.69992112    -0.27200
N479        N  0.42144386  0.58005208  0.68351272    -0.35100
C480        C  0.41842543  0.58199622  0.65179800     0.01100
C481        C  0.40686283  0.59467010  0.64821545     0.07100
C482        C  0.40324767  0.60004248  0.67913062    -0.06000
H483        H  0.42439645  0.57492841  0.63279063     0.07800
H484        H  0.39480762  0.60997154  0.68599085     0.09000
Cu485      Cu  0.43786502  0.56344951  0.70531664     0.44200
Cu486      Cu  0.41266376  0.59287519  0.74986773     0.42000
Cu487      Cu  0.44229796  0.56709540  0.79318258     0.43900
N488        N  0.45232886  0.54727211  0.73284772    -0.34600
N489        N  0.45417059  0.54876096  0.76467366    -0.28900
C490        C  0.46318935  0.53528148  0.77481695    -0.05000
C491        C  0.46707428  0.52469898  0.74815065     0.07200
C492        C  0.46006443  0.53278278  0.72197871     0.01000
H493        H  0.46601515  0.53274312  0.79982119     0.08700
H494        H  0.46001589  0.52797980  0.69685490     0.07800
N495        N  0.42591937  0.58360495  0.81576630    -0.36100
N496        N  0.41501439  0.59285984  0.79976232    -0.28300
C497        C  0.40551889  0.60136112  0.82089784    -0.03500
C498        C  0.41056174  0.59720791  0.85174731     0.05100
C499        C  0.42357695  0.58595838  0.84759724     0.03200
H500        H  0.39549124  0.60976922  0.81430541     0.08300
H501        H  0.43040782  0.57954294  0.86634043     0.07100
C502        C  0.38131990  0.62209314  0.52945305     0.03200
C503        C  0.36952524  0.63501871  0.52926710    -0.13000
C504        C  0.36333667  0.64118576  0.99999204     0.00700
C505        C  0.36974160  0.63505398  0.97077660    -0.11500
C506        C  0.38152055  0.62201767  0.97073740     0.03200
C507        C  0.38682357  0.61522434  0.50023704    -0.10900
H508        H  0.36498354  0.64007183  0.55185891     0.08800
H509        H  0.36564689  0.64047521  0.94814518     0.06300
H510        H  0.39561323  0.60491753  0.50045737     0.05300
N511        N  0.52602936  0.43675701  0.79529283    -0.27200
N512        N  0.51875970  0.44936886  0.81171733    -0.35100
C513        C  0.52447505  0.44994713  0.84323799     0.01100
C514        C  0.53588282  0.43708872  0.84678178     0.07100
C515        C  0.53651372  0.42894294  0.81591201    -0.06000
H516        H  0.52095991  0.45937338  0.86214449     0.07800
H517        H  0.54459259  0.41868283  0.80891701     0.09000
Cu518      Cu  0.50272079  0.46647346  0.79021688     0.44200
Cu519      Cu  0.52290919  0.43224270  0.74541254     0.42000
Cu520      Cu  0.49503489  0.46010274  0.70275866     0.43900
N521        N  0.48912831  0.48364588  0.76295850    -0.34600
N522        N  0.48625534  0.48127432  0.73120180    -0.28900
C523        C  0.47798186  0.49545849  0.72109380    -0.05000
C524        C  0.47552081  0.50731203  0.74772092     0.07200
C525        C  0.48271073  0.49934495  0.77383862     0.01000
H526        H  0.47426147  0.49720061  0.69614491     0.08700
H527        H  0.48349056  0.50477710  0.79892527     0.07800
N528        N  0.50971659  0.44211743  0.67981785    -0.36100
N529        N  0.52027836  0.43237781  0.69550997    -0.28300
C530        C  0.53068074  0.42498307  0.67406397    -0.03500
C531        C  0.52636211  0.43018892  0.64341320     0.05100
C532        C  0.51298466  0.44100009  0.64791524     0.03200
H533        H  0.54168369  0.41751200  0.68031297     0.08300
H534        H  0.50746956  0.44888795  0.62941690     0.07100
C535        C  0.57450590  0.42377297  0.96621843     0.03200
C536        C  0.56524632  0.42754549  0.99490460    -0.13000
C537        C  0.57063977  0.42148919  0.52486854     0.00700
C538        C  0.58576792  0.41188587  0.52597195    -0.11500
C539        C  0.59563147  0.40858181  0.99740641     0.03200
C540        C  0.59009368  0.41468546  0.96760236    -0.10900
H541        H  0.55310739  0.43444671  0.99388884     0.08800
H542        H  0.58967900  0.40681275  0.54901121     0.06300
H543        H  0.59723369  0.41169100  0.94550012     0.06100
C544        C  0.61119710  0.39819206  0.49867045     0.03200
C545        C  0.58673940  0.36015497  0.50007623    -0.13000
C546        C  0.60169978  0.35042022  0.50146692     0.00700
C547        C  0.64105850  0.37871538  0.50176040    -0.11500
C548        C  0.66557836  0.41661469  0.49997463     0.03200
C549        C  0.65061074  0.42632882  0.49828183    -0.10900
H550        H  0.55630373  0.33830839  0.50000185     0.08800
H551        H  0.65261876  0.37119344  0.50287888     0.06300
H552        H  0.66955938  0.45567870  0.49698287     0.06100
C553        C  0.58718213  0.45400902  0.57652792    -0.01800
C554        C  0.55933403  0.42409818  0.55500718     0.07900
C555        C  0.52060155  0.39669324  0.56222273    -0.01900
C556        C  0.50981388  0.39895344  0.59094281    -0.01900
C557        C  0.53764258  0.42850894  0.61266883     0.08000
C558        C  0.57635799  0.45618790  0.60526961    -0.02100
Br559      Br  0.61466272  0.49787635  0.63405821    -0.00700
Br560      Br  0.64025241  0.49267707  0.56615247    -0.00700
Br561      Br  0.45681540  0.36082079  0.60109379    -0.00700
Br562      Br  0.48219328  0.35522844  0.53327207    -0.00700
C563        C  0.57812276  0.46630769  0.89470828    -0.01800
C564        C  0.54636252  0.43383764  0.87697070     0.07900
C565        C  0.52476075  0.39825123  0.88804164    -0.01900
C566        C  0.53461296  0.39511728  0.91679888    -0.01900
C567        C  0.56593995  0.42750153  0.93479483     0.08000
C568        C  0.58789747  0.46312716  0.92351315    -0.02100
Br569      Br  0.63202116  0.50764966  0.94718811    -0.00700
Br570      Br  0.60907402  0.51536403  0.87907789    -0.00700
Br571      Br  0.50442813  0.34623102  0.93213713    -0.00700
Br572      Br  0.48031418  0.35344327  0.86482292    -0.00700
C573        C  0.43281764  0.63123113  0.90401165    -0.01800
C574        C  0.40300063  0.60309923  0.88244412     0.07900
C575        C  0.36605995  0.58121142  0.88988820    -0.01900
C576        C  0.35899849  0.58739686  0.91865206    -0.01900
C577        C  0.38893171  0.61590001  0.94000650     0.08000
C578        C  0.42590691  0.63789423  0.93246882    -0.02100
Br579      Br  0.46763778  0.67845296  0.96044212    -0.00700
Br580      Br  0.48362076  0.66181910  0.89408048    -0.00700
Br581      Br  0.30788921  0.55561895  0.92940875    -0.00700
Br582      Br  0.32454981  0.54135203  0.86145569    -0.00700
C583        C  0.36528040  0.57186854  0.60206162    -0.01800
C584        C  0.40037002  0.60170145  0.61782970     0.07900
C585        C  0.42911735  0.63836139  0.60475546    -0.01900
C586        C  0.42275478  0.64518331  0.57601304    -0.01900
C587        C  0.38765291  0.61531570  0.56024120     0.08000
C588        C  0.35891540  0.57868379  0.57333371    -0.02100
Br589      Br  0.31072878  0.53799828  0.55189597    -0.00700
Br590      Br  0.32590905  0.52170618  0.61995439    -0.00700
Br591      Br  0.46219586  0.69529316  0.55793322    -0.00700
Br592      Br  0.47746786  0.67900642  0.62594806    -0.00700
C593        C  0.40747068  0.81366851  0.92784916    -0.01800
C594        C  0.43342295  0.81908109  0.94101500     0.07900
C595        C  0.46753489  0.84150433  0.92465512    -0.01900
C596        C  0.47586109  0.85873853  0.89517532    -0.01900
C597        C  0.45016079  0.85374933  0.88215933     0.08000
C598        C  0.41590213  0.83112007  0.89848323    -0.02100
Br599      Br  0.38014354  0.82331158  0.88021816    -0.00700
Br600      Br  0.36038826  0.78226787  0.95013043    -0.00700
Br601      Br  0.52292982  0.88999922  0.87304274    -0.00700
Br602      Br  0.50272281  0.84848705  0.94282382    -0.00700
C603        C  0.41600271  0.82418509  0.57098622    -0.01800
C604        C  0.43690497  0.82210610  0.56076449     0.07900
C605        C  0.46796529  0.83944032  0.57894294    -0.01900
C606        C  0.47789067  0.85850345  0.60749389    -0.01900
C607        C  0.45687446  0.86045216  0.61785849     0.08000
C608        C  0.42608903  0.84351789  0.59935260    -0.02100
Br609      Br  0.39675072  0.84553731  0.61330054    -0.00700
Br610      Br  0.37287622  0.79963147  0.54640282    -0.00700
Br611      Br  0.52136784  0.88340557  0.63162926    -0.00700
Br612      Br  0.49732725  0.83768290  0.56421671    -0.00700
C613        C  0.50646818  0.20998412  0.92914968    -0.01800
C614        C  0.54268493  0.24020418  0.94308679     0.07900
C615        C  0.57369082  0.25405497  0.92837364    -0.01900
C616        C  0.56855419  0.23786107  0.89973792    -0.01900
C617        C  0.53237696  0.20774467  0.88564790     0.08000
C618        C  0.50132667  0.19380425  0.90041381    -0.02100
Br619      Br  0.45158287  0.15181517  0.88174488    -0.00700
Br620      Br  0.46411826  0.19105568  0.94943664    -0.00700
Br621      Br  0.61136656  0.25756700  0.87945622    -0.00700
Br622      Br  0.62319289  0.29493833  0.94786758    -0.00700
C623        C  0.50876980  0.19928202  0.60780916    -0.01800
C624        C  0.54086107  0.21464139  0.62142310     0.07900
C625        C  0.57623500  0.24416847  0.60546163    -0.01900
C626        C  0.57955710  0.25849958  0.57614272    -0.01900
C627        C  0.54753854  0.24340115  0.56272188     0.08000
C628        C  0.51210131  0.21361280  0.57845718    -0.02100
Br629      Br  0.46826256  0.19269207  0.55979031    -0.00700
Br630      Br  0.45997640  0.15773807  0.62883949    -0.00700
Br631      Br  0.62783481  0.29833688  0.55389639    -0.00700
Br632      Br  0.62039947  0.26568203  0.62415010    -0.00700
C633        C  0.79752976  0.48622332  0.89401499    -0.01800
C634        C  0.82518746  0.52309676  0.88161011     0.07900
C635        C  0.83236017  0.54910882  0.89764913    -0.01900
C636        C  0.81264980  0.53856827  0.92639506    -0.01900
C637        C  0.78594711  0.50210662  0.93926442     0.08000
C638        C  0.77825622  0.47588701  0.92285129    -0.02100
Br639      Br  0.74207682  0.42589013  0.94044361    -0.00700
Br640      Br  0.78504596  0.44922024  0.87113067    -0.00700
Br641      Br  0.82175816  0.57372213  0.94806188    -0.00700
Br642      Br  0.87021424  0.59956415  0.88090273    -0.00700
C643        C  0.81104963  0.49699638  0.56142263    -0.01800
C644        C  0.78452360  0.49350730  0.55955491     0.07900
C645        C  0.77559657  0.49838782  0.58795085    -0.01900
C646        C  0.78935166  0.50220389  0.61801904    -0.01900
C647        C  0.81725388  0.50752382  0.61970405     0.08000
C648        C  0.82950325  0.50705484  0.59068178    -0.02100
Br649      Br  0.87349469  0.52290698  0.58965194    -0.00700
Br650      Br  0.82027275  0.48483471  0.52513356    -0.00700
Br651      Br  0.76625494  0.49610194  0.65641039    -0.00700
Br652      Br  0.74597073  0.50189376  0.58606767    -0.00700
C653        C  0.14704513  0.54240331  0.89377203    -0.01800
C654        C  0.15870853  0.57222232  0.88028730     0.07900
C655        C  0.18557625  0.60694464  0.89629942    -0.01900
C656        C  0.20097640  0.61193196  0.92564027    -0.01900
C657        C  0.18947017  0.58216831  0.93903903     0.08000
C658        C  0.16225373  0.54731072  0.92322934    -0.02100
Br659      Br  0.14588607  0.50637245  0.94204998    -0.00700
Br660      Br  0.10959102  0.49457546  0.87219857    -0.00700
Br661      Br  0.23735788  0.65930684  0.94787039    -0.00700
Br662      Br  0.20187976  0.64790922  0.87762574    -0.00700
C663        C  0.16367355  0.54180812  0.57625203    -0.01800
C664        C  0.18432800  0.57447160  0.55881464     0.07900
C665        C  0.18697332  0.59855664  0.57058800    -0.01900
C666        C  0.16861315  0.58976810  0.59955506    -0.01900
C667        C  0.14734691  0.55672140  0.61677942     0.08000
C668        C  0.14521772  0.53293858  0.60523741    -0.02100
Br669      Br  0.11638553  0.48782972  0.62877908    -0.00700
Br670      Br  0.16053157  0.50920303  0.56009956    -0.00700
Br671      Br  0.17419403  0.62403003  0.61640842    -0.00700
Br672      Br  0.21654213  0.64408618  0.54727104    -0.00700
loop_ 
_geom_bond_atom_site_label_1 
_geom_bond_atom_site_label_2 
_geom_bond_distance 
_geom_bond_site_symmetry_2 
_ccdc_geom_bond_type 
N1            N2   1.322       .  A
N1            C5   1.345       .  A
N1           Cu9   2.072       .  S
N2            C3   1.345       .  A
N2           Cu8   2.067       .  S
C3            C4   1.381       .  A
C3            H6   1.082       .  S
C4            C5   1.382       .  A
C4          C318   1.474       .  S
C5            H7   1.081       .  S
Cu8          N11   2.067       .  S
Cu9          N19   2.072       .  S
Cu10         N12   2.085       .  S
Cu10         N18   2.085       .  S
N11          N12   1.323       .  A
N11          C15   1.343       .  A
N12          C13   1.348   1_455  A
C13          C14   1.386       .  A
C13          H16   1.082       .  S
C14          C15   1.380   1_655  A
C14          C47   1.472       .  S
C15          H17   1.083       .  S
N18          N19   1.323       .  A
N18          C22   1.347       .  A
N19          C20   1.345       .  A
C20          C21   1.381       .  A
C20          H23   1.081       .  S
C21          C22   1.385       .  A
C21         C331   1.478       .  S
C22          H24   1.082       .  S
C25          C26   1.403       .  A
C25         C366   1.402   1_554  A
C25         C328   1.478       .  S
C26         C363   1.402   1_554  A
C26          H31   1.084       .  S
C27          C28   1.402       .  A
C27         C362   1.402       .  A
C27         C135   1.471       .  S
C28          C29   1.403       .  A
C28          H32   1.084       .  S
C29          C30   1.402       .  A
C29         C321   1.477       .  S
C30         C361   1.402       .  A
C30          H33   1.084       .  S
N34          N35   1.320       .  A
N34          C38   1.347       .  A
N34         Cu42   2.088       .  S
N35          C36   1.343       .  A
N35         Cu41   2.070       .  S
C36          C37   1.388       .  A
C36          H39   1.081       .  S
C37          C38   1.393       .  A
C37         C311   1.498       .  S
C38          H40   1.080       .  S
Cu41         N44   2.071       .  S
Cu42         N52   2.089       .  S
Cu43         N45   2.071       .  S
Cu43         N51   2.072       .  S
N44          N45   1.321       .  A
N44          C48   1.346       .  A
N45          C46   1.344       .  A
C46          C47   1.384       .  A
C46          H49   1.083       .  S
C47          C48   1.383       .  A
C48          H50   1.082       .  S
N51          N52   1.323       .  A
N51          C55   1.343       .  A
N52          C53   1.349       .  A
C53          C54   1.386       .  A
C53          H56   1.081       .  S
C54          C55   1.382       .  A
C54         C298   1.482       .  S
C55          H57   1.082       .  S
C58          C59   1.402       .  A
C58         C399   1.405       .  A
C58         C301   1.482       .  S
C59         C396   1.399       .  A
C59          H64   1.084       .  S
C60          C61   1.401   1_556  A
C60         C395   1.399       .  A
C60         C212   1.472       .  S
C61          C62   1.409       .  A
C61          H65   1.084       .  S
C62          C63   1.410   1_554  A
C62         C308   1.500       .  S
C63         C394   1.405       .  A
C63          H66   1.083       .  S
N67          N68   1.323       .  A
N67          C71   1.346       .  A
N67         Cu75   2.079       .  S
N68          C69   1.346       .  A
N68         Cu74   2.079       .  S
C69          C70   1.383       .  A
C69          H72   1.082       .  S
C70          C71   1.383       .  A
C70         C281   1.478       .  S
C71          H73   1.082       .  S
Cu74         N77   2.079       .  S
Cu75         N85   2.079       .  S
Cu76         N78   2.072       .  S
Cu76         N84   2.072       .  S
N77          N78   1.322       .  A
N77          C81   1.346       .  A
N78          C79   1.345       .  A
C79          C80   1.383       .  A
C79          H82   1.082       .  S
C80          C81   1.384       .  A
C80         C113   1.473       .  S
C81          H83   1.082       .  S
N84          N85   1.323       .  A
N84          C88   1.345       .  A
N85          C86   1.346       .  A
C86          C87   1.383       .  A
C86          H89   1.082       .  S
C87          C88   1.381       .  A
C87         C288   1.476       .  S
C88          H90   1.082       .  S
C91          C92   1.404       .  A
C91         C432   1.402       .  A
C91         C278   1.479       .  S
C92         C429   1.403       .  A
C92          H97   1.084       .  S
C93          C94   1.401       .  A
C93         C428   1.403   1_554  A
C93         C210   1.471       .  S
C94          C95   1.403       .  A
C94          H98   1.084       .  S
C95          C96   1.402       .  A
C95         C291   1.478       .  S
C96         C427   1.402   1_554  A
C96          H99   1.084       .  S
N100        N101   1.323       .  A
N100        C104   1.345       .  A
N100       Cu108   2.073       .  S
N101        C102   1.345       .  A
N101       Cu107   2.073       .  S
C102        C103   1.381       .  A
C102        H105   1.082       .  S
C103        C104   1.382       .  A
C103        C261   1.474       .  S
C104        H106   1.082       .  S
Cu107       N110   2.073       .  S
Cu108       N118   2.074       .  S
Cu109       N111   2.079       .  S
Cu109       N117   2.079       .  S
N110        N111   1.322       .  A
N110        C114   1.345   1_565  A
N111        C112   1.346   1_565  A
C112        C113   1.384       .  A
C112        H115   1.082       .  S
C113        C114   1.383       .  A
C114        H116   1.082       .  S
N117        N118   1.323       .  A
N117        C121   1.346       .  A
N118        C119   1.345       .  A
C119        C120   1.382       .  A
C119        H122   1.082       .  S
C120        C121   1.384       .  A
C120        C271   1.479       .  S
C121        H123   1.082       .  S
C124        C125   1.405       .  A
C124        C129   1.402       .  A
C124        C268   1.479       .  S
C125        C126   1.404       .  A
C125        H130   1.084       .  S
C126        C463   1.400   1_554  A
C126        C473   1.470       .  S
C127        C128   1.400       .  A
C127        C462   1.400       .  A
C127        H131   1.084       .  S
C128        C465   1.400       .  A
C128        C258   1.474       .  S
C129        C464   1.400   1_554  A
C129        H132   1.084       .  S
C133        C134   1.407       .  A
C133        C138   1.406       .  A
C133        C168   1.476       .  S
C134        C135   1.404       .  A
C134        H139   1.084       .  S
C135        C136   1.398       .  A
C136        C137   1.398       .  A
C136        H140   1.085       .  S
C137        C138   1.403       .  A
C137        C462   1.470       .  S
C138        H141   1.083       .  S
N142        N143   1.323       .  A
N142        C146   1.346       .  A
N142       Cu150   2.077       .  S
N143        C144   1.347       .  A
N143       Cu149   2.080       .  S
C144        C145   1.383       .  A
C144        H147   1.081       .  S
C145        C146   1.382       .  A
C145        C248   1.477       .  S
C146        H148   1.081       .  S
Cu149       N152   2.081       .  S
Cu150       N160   2.077       .  S
Cu151       N153   2.087       .  S
Cu151       N159   2.087       .  S
N152        N153   1.324       .  A
N152        C156   1.346       .  A
N153        C154   1.347       .  A
C154        C155   1.385       .  A
C154        H157   1.082       .  S
C155        C156   1.384       .  A
C155        C188   1.477       .  S
C156        H158   1.082       .  S
N159        N160   1.323       .  A
N159        C163   1.348       .  A
N160        C161   1.345       .  A
C161        C162   1.383       .  A
C161        H164   1.081       .  S
C162        C163   1.387       .  A
C162        C238   1.485       .  S
C163        H165   1.082       .  S
C166        C167   1.402       .  A
C166        C171   1.402       .  A
C166        C251   1.479       .  S
C167        C504   1.403   1_554  A
C167        H172   1.084       .  S
C168        C169   1.406       .  A
C168        C503   1.403       .  A
C169        C170   1.408       .  A
C169        H173   1.084       .  S
C170        C507   1.404       .  A
C170        C241   1.488       .  S
C171        C506   1.404   1_554  A
C171        H174   1.084       .  S
N175        N176   1.323       .  A
N175        C179   1.346       .  A
N175       Cu183   2.079       .  S
N176        C177   1.347       .  A
N176       Cu182   2.081       .  S
C177        C178   1.385       .  A
C177        H180   1.082       .  S
C178        C179   1.384       .  A
C178        C228   1.482       .  S
C179        H181   1.081       .  S
Cu182       N185   2.082       .  S
Cu183       N193   2.079       .  S
Cu184       N186   2.085       .  S
Cu184       N192   2.084       .  S
N185        N186   1.323       .  A
N185        C189   1.347       .  A
N186        C187   1.347       .  A
C187        C188   1.385       .  A
C187        H190   1.082       .  S
C188        C189   1.384       .  A
C189        H191   1.082       .  S
N192        N193   1.323       .  A
N192        C196   1.348       .  A
N193        C194   1.346       .  A
C194        C195   1.383       .  A
C194        H197   1.081       .  S
C195        C196   1.384       .  A
C195        C221   1.481       .  S
C196        H198   1.082       .  S
C199        C200   1.404       .  A
C199        C204   1.404       .  A
C199        C231   1.483       .  S
C200        C537   1.404       .  A
C200        H205   1.084       .  S
C201        C202   1.406       .  A
C201        C536   1.404   1_554  A
C201        C218   1.486       .  S
C202        C539   1.404   1_554  A
C202        H206   1.084       .  S
C203        C204   1.403       .  A
C203        C538   1.404       .  A
C203        C544   1.475       .  S
C204        H207   1.084       .  S
C208        C209   1.406   1_556  A
C208        C213   1.404       .  A
C208        C539   1.475       .  S
C209        C210   1.404       .  A
C209        H214   1.083   1_554  S
C210        C211   1.401       .  A
C211        C212   1.399   1_554  A
C211        H215   1.085       .  S
C212        C213   1.404       .  A
C213        H216   1.084       .  S
C217        C218   1.411       .  A
C217        C222   1.409       .  A
C217       Br224   1.930       .  S
C218        C219   1.412       .  A
C219        C220   1.410       .  A
C219       Br226   1.931       .  S
C220        C221   1.409       .  A
C220       Br225   1.929       .  S
C221        C222   1.411       .  A
C222       Br223   1.930       .  S
C227        C228   1.412       .  A
C227        C232   1.409       .  A
C227       Br234   1.930       .  S
C228        C229   1.411       .  A
C229        C230   1.409       .  A
C229       Br236   1.930       .  S
C230        C231   1.410       .  A
C230       Br235   1.931       .  S
C231        C232   1.409       .  A
C232       Br233   1.930       .  S
C237        C238   1.411       .  A
C237        C242   1.410       .  A
C237       Br244   1.930       .  S
C238        C239   1.412       .  A
C239        C240   1.410       .  A
C239       Br246   1.931       .  S
C240        C241   1.412       .  A
C240       Br245   1.931       .  S
C241        C242   1.413       .  A
C242       Br243   1.932       .  S
C247        C248   1.409       .  A
C247        C252   1.408       .  A
C247       Br254   1.928       .  S
C248        C249   1.409       .  A
C249        C250   1.409       .  A
C249       Br256   1.929       .  S
C250        C251   1.410       .  A
C250       Br255   1.929       .  S
C251        C252   1.409       .  A
C252       Br253   1.929       .  S
C257        C258   1.409       .  A
C257        C262   1.407       .  A
C257       Br264   1.931       .  S
C258        C259   1.407       .  A
C259        C260   1.406       .  A
C259       Br266   1.929       .  S
C260        C261   1.409       .  A
C260       Br265   1.929       .  S
C261        C262   1.410       .  A
C262       Br263   1.930       .  S
C267        C268   1.409       .  A
C267        C272   1.407       .  A
C267       Br274   1.931       .  S
C268        C269   1.408       .  A
C269        C270   1.408       .  A
C269       Br276   1.929       .  S
C270        C271   1.411       .  A
C270       Br275   1.930       .  S
C271        C272   1.411       .  A
C272       Br273   1.930       .  S
C277        C278   1.409       .  A
C277        C282   1.410       .  A
C277       Br284   1.929       .  S
C278        C279   1.410       .  A
C279        C280   1.407       .  A
C279       Br286   1.932       .  S
C280        C281   1.410       .  A
C280       Br285   1.930       .  S
C281        C282   1.410       .  A
C282       Br283   1.929       .  S
C287        C288   1.410       .  A
C287        C292   1.408       .  A
C287       Br294   1.929       .  S
C288        C289   1.410       .  A
C289        C290   1.407       .  A
C289       Br296   1.930       .  S
C290        C291   1.410       .  A
C290       Br295   1.932       .  S
C291        C292   1.408       .  A
C292       Br293   1.929       .  S
C297        C298   1.411       .  A
C297        C302   1.406       .  A
C297       Br304   1.933       .  S
C298        C299   1.411       .  A
C299        C300   1.412       .  A
C299       Br306   1.928       .  S
C300        C301   1.409       .  A
C300       Br305   1.928       .  S
C301        C302   1.411       .  A
C302       Br303   1.934       .  S
C307        C308   1.416       .  A
C307        C312   1.411       .  A
C307       Br314   1.935       .  S
C308        C309   1.416       .  A
C309        C310   1.409       .  A
C309       Br316   1.936       .  S
C310        C311   1.417       .  A
C310       Br315   1.933       .  S
C311        C312   1.418       .  A
C312       Br313   1.935       .  S
C317        C318   1.409       .  A
C317        C322   1.407       .  A
C317       Br324   1.930       .  S
C318        C319   1.409       .  A
C319        C320   1.407       .  A
C319       Br326   1.930       .  S
C320        C321   1.410       .  A
C320       Br325   1.931       .  S
C321        C322   1.408       .  A
C322       Br323   1.929       .  S
C327        C328   1.408       .  A
C327        C332   1.409       .  A
C327       Br334   1.929       .  S
C328        C329   1.409       .  A
C329        C330   1.407       .  A
C329       Br336   1.931       .  S
C330        C331   1.410       .  A
C330       Br335   1.930       .  S
C331        C332   1.411       .  A
C332       Br333   1.929       .  S
N337        N338   1.322       .  A
N337        C341   1.345       .  A
N337       Cu345   2.072       .  S
N338        C339   1.345       .  A
N338       Cu344   2.067       .  S
C339        C340   1.381       .  A
C339        H342   1.082       .  S
C340        C341   1.382       .  A
C340        C654   1.474       .  S
C341        H343   1.081       .  S
Cu344       N347   2.067       .  S
Cu345       N355   2.072       .  S
Cu346       N348   2.085       .  S
Cu346       N354   2.085       .  S
N347        N348   1.323       .  A
N347        C351   1.343       .  A
N348        C349   1.348   1_455  A
C349        C350   1.386       .  A
C349        H352   1.082       .  S
C350        C351   1.380   1_655  A
C350        C383   1.472       .  S
C351        H353   1.083       .  S
N354        N355   1.323       .  A
N354        C358   1.347       .  A
N355        C356   1.345       .  A
C356        C357   1.381       .  A
C356        H359   1.081       .  S
C357        C358   1.385       .  A
C357        C667   1.478       .  S
C358        H360   1.082       .  S
C361        C362   1.403       .  A
C361        C664   1.478       .  S
C362        H367   1.084       .  S
C363        C364   1.402       .  A
C363        C471   1.471   1_556  S
C364        C365   1.403       .  A
C364        H368   1.084       .  S
C365        C366   1.402       .  A
C365        C657   1.477       .  S
C366        H369   1.084       .  S
N370        N371   1.320       .  A
N370        C374   1.347       .  A
N370       Cu378   2.088       .  S
N371        C372   1.343       .  A
N371       Cu377   2.070       .  S
C372        C373   1.388       .  A
C372        H375   1.081       .  S
C373        C374   1.393       .  A
C373        C647   1.498       .  S
C374        H376   1.080       .  S
Cu377       N380   2.071       .  S
Cu378       N388   2.089       .  S
Cu379       N381   2.071       .  S
Cu379       N387   2.072       .  S
N380        N381   1.321       .  A
N380        C384   1.346       .  A
N381        C382   1.344       .  A
C382        C383   1.384       .  A
C382        H385   1.083       .  S
C383        C384   1.383       .  A
C384        H386   1.082       .  S
N387        N388   1.323       .  A
N387        C391   1.343       .  A
N388        C389   1.349       .  A
C389        C390   1.386       .  A
C389        H392   1.081       .  S
C390        C391   1.382       .  A
C390        C634   1.482       .  S
C391        H393   1.082       .  S
C394        C395   1.402       .  A
C394        C637   1.482       .  S
C395        H400   1.084       .  S
C396        C397   1.401       .  A
C396        C548   1.472       .  S
C397        C398   1.408       .  A
C397        H401   1.084       .  S
C398        C399   1.410       .  A
C398        C644   1.500       .  S
C399        H402   1.083       .  S
N403        N404   1.323       .  A
N403        C407   1.346       .  A
N403       Cu411   2.079       .  S
N404        C405   1.346       .  A
N404       Cu410   2.079       .  S
C405        C406   1.383       .  A
C405        H408   1.082       .  S
C406        C407   1.383       .  A
C406        C617   1.478       .  S
C407        H409   1.082       .  S
Cu410       N413   2.079       .  S
Cu411       N421   2.079       .  S
Cu412       N414   2.072       .  S
Cu412       N420   2.072       .  S
N413        N414   1.322       .  A
N413        C417   1.346       .  A
N414        C415   1.345       .  A
C415        C416   1.383       .  A
C415        H418   1.082       .  S
C416        C417   1.384       .  A
C416        C449   1.473       .  S
C417        H419   1.082       .  S
N420        N421   1.323       .  A
N420        C424   1.345       .  A
N421        C422   1.346       .  A
C422        C423   1.383       .  A
C422        H425   1.081       .  S
C423        C424   1.381       .  A
C423        C624   1.476       .  S
C424        H426   1.082       .  S
C427        C428   1.404       .  A
C427        C614   1.479       .  S
C428        H433   1.084       .  S
C429        C430   1.401       .  A
C429        C546   1.471       .  S
C430        C431   1.403       .  A
C430        H434   1.084       .  S
C431        C432   1.402       .  A
C431        C627   1.478       .  S
C432        H435   1.084       .  S
N436        N437   1.323       .  A
N436        C440   1.345       .  A
N436       Cu444   2.073       .  S
N437        C438   1.345       .  A
N437       Cu443   2.073       .  S
C438        C439   1.381       .  A
C438        H441   1.082       .  S
C439        C440   1.382       .  A
C439        C597   1.474       .  S
C440        H442   1.082       .  S
Cu443       N446   2.073       .  S
Cu444       N454   2.074       .  S
Cu445       N447   2.079       .  S
Cu445       N453   2.079       .  S
N446        N447   1.322       .  A
N446        C450   1.345   1_565  A
N447        C448   1.346   1_565  A
C448        C449   1.384       .  A
C448        H451   1.082       .  S
C449        C450   1.383       .  A
C450        H452   1.082       .  S
N453        N454   1.323       .  A
N453        C457   1.346       .  A
N454        C455   1.345       .  A
C455        C456   1.382       .  A
C455        H458   1.082       .  S
C456        C457   1.384       .  A
C456        C607   1.479       .  S
C457        H459   1.082       .  S
C460        C461   1.405       .  A
C460        C465   1.402       .  A
C460        C604   1.478       .  S
C461        C462   1.404       .  A
C461        H466   1.084       .  S
C463        C464   1.400       .  A
C463        H467   1.084       .  S
C464        C594   1.474       .  S
C465        H468   1.084       .  S
C469        C470   1.407   1_554  A
C469        C474   1.406       .  A
C469        C504   1.476   1_554  S
C470        C471   1.404   1_556  A
C470        H475   1.084       .  S
C471        C472   1.398       .  A
C472        C473   1.398       .  A
C472        H476   1.085       .  S
C473        C474   1.403       .  A
C474        H477   1.083       .  S
N478        N479   1.323       .  A
N478        C482   1.346       .  A
N478       Cu486   2.077       .  S
N479        C480   1.347       .  A
N479       Cu485   2.080       .  S
C480        C481   1.383       .  A
C480        H483   1.082       .  S
C481        C482   1.382       .  A
C481        C584   1.477       .  S
C482        H484   1.081       .  S
Cu485       N488   2.081       .  S
Cu486       N496   2.077       .  S
Cu487       N489   2.087       .  S
Cu487       N495   2.087       .  S
N488        N489   1.324       .  A
N488        C492   1.346       .  A
N489        C490   1.347       .  A
C490        C491   1.385       .  A
C490        H493   1.082       .  S
C491        C492   1.384       .  A
C491        C524   1.477       .  S
C492        H494   1.082       .  S
N495        N496   1.323       .  A
N495        C499   1.348       .  A
N496        C497   1.345       .  A
C497        C498   1.383       .  A
C497        H500   1.081       .  S
C498        C499   1.387       .  A
C498        C574   1.485       .  S
C499        H501   1.082       .  S
C502        C503   1.402       .  A
C502        C507   1.402       .  A
C502        C587   1.479       .  S
C503        H508   1.084       .  S
C504        C505   1.406       .  A
C505        C506   1.408       .  A
C505        H509   1.084       .  S
C506        C577   1.488       .  S
C507        H510   1.084       .  S
N511        N512   1.323       .  A
N511        C515   1.346       .  A
N511       Cu519   2.079       .  S
N512        C513   1.347       .  A
N512       Cu518   2.081       .  S
C513        C514   1.385       .  A
C513        H516   1.082       .  S
C514        C515   1.384       .  A
C514        C564   1.482       .  S
C515        H517   1.081       .  S
Cu518       N521   2.082       .  S
Cu519       N529   2.079       .  S
Cu520       N522   2.085       .  S
Cu520       N528   2.084       .  S
N521        N522   1.323       .  A
N521        C525   1.347       .  A
N522        C523   1.347       .  A
C523        C524   1.385       .  A
C523        H526   1.082       .  S
C524        C525   1.384       .  A
C525        H527   1.082       .  S
N528        N529   1.323       .  A
N528        C532   1.348       .  A
N529        C530   1.346       .  A
C530        C531   1.383       .  A
C530        H533   1.081       .  S
C531        C532   1.384       .  A
C531        C557   1.481       .  S
C532        H534   1.082       .  S
C535        C536   1.404       .  A
C535        C540   1.404       .  A
C535        C567   1.483       .  S
C536        H541   1.084       .  S
C537        C538   1.406       .  A
C537        C554   1.486       .  S
C538        H542   1.084       .  S
C539        C540   1.403       .  A
C540        H543   1.084       .  S
C544        C545   1.406       .  A
C544        C549   1.404       .  A
C545        C546   1.404       .  A
C545        H550   1.083       .  S
C546        C547   1.401       .  A
C547        C548   1.399       .  A
C547        H551   1.085       .  S
C548        C549   1.404       .  A
C549        H552   1.084       .  S
C553        C554   1.411       .  A
C553        C558   1.409       .  A
C553       Br560   1.930       .  S
C554        C555   1.412       .  A
C555        C556   1.410       .  A
C555       Br562   1.931       .  S
C556        C557   1.409       .  A
C556       Br561   1.929       .  S
C557        C558   1.411       .  A
C558       Br559   1.930       .  S
C563        C564   1.412       .  A
C563        C568   1.409       .  A
C563       Br570   1.930       .  S
C564        C565   1.411       .  A
C565        C566   1.409       .  A
C565       Br572   1.930       .  S
C566        C567   1.410       .  A
C566       Br571   1.931       .  S
C567        C568   1.409       .  A
C568       Br569   1.930       .  S
C573        C574   1.411       .  A
C573        C578   1.410       .  A
C573       Br580   1.930       .  S
C574        C575   1.412       .  A
C575        C576   1.410       .  A
C575       Br582   1.931       .  S
C576        C577   1.412       .  A
C576       Br581   1.931       .  S
C577        C578   1.413       .  A
C578       Br579   1.932       .  S
C583        C584   1.409       .  A
C583        C588   1.408       .  A
C583       Br590   1.928       .  S
C584        C585   1.409       .  A
C585        C586   1.409       .  A
C585       Br592   1.929       .  S
C586        C587   1.410       .  A
C586       Br591   1.929       .  S
C587        C588   1.409       .  A
C588       Br589   1.929       .  S
C593        C594   1.409       .  A
C593        C598   1.407       .  A
C593       Br600   1.931       .  S
C594        C595   1.407       .  A
C595        C596   1.406       .  A
C595       Br602   1.929       .  S
C596        C597   1.409       .  A
C596       Br601   1.929       .  S
C597        C598   1.410       .  A
C598       Br599   1.930       .  S
C603        C604   1.409       .  A
C603        C608   1.407       .  A
C603       Br610   1.931       .  S
C604        C605   1.408       .  A
C605        C606   1.408       .  A
C605       Br612   1.929       .  S
C606        C607   1.411       .  A
C606       Br611   1.930       .  S
C607        C608   1.411       .  A
C608       Br609   1.930       .  S
C613        C614   1.409       .  A
C613        C618   1.410       .  A
C613       Br620   1.929       .  S
C614        C615   1.410       .  A
C615        C616   1.407       .  A
C615       Br622   1.932       .  S
C616        C617   1.410       .  A
C616       Br621   1.930       .  S
C617        C618   1.410       .  A
C618       Br619   1.929       .  S
C623        C624   1.410       .  A
C623        C628   1.408       .  A
C623       Br630   1.929       .  S
C624        C625   1.410       .  A
C625        C626   1.407       .  A
C625       Br632   1.930       .  S
C626        C627   1.410       .  A
C626       Br631   1.932       .  S
C627        C628   1.408       .  A
C628       Br629   1.929       .  S
C633        C634   1.411       .  A
C633        C638   1.406       .  A
C633       Br640   1.933       .  S
C634        C635   1.411       .  A
C635        C636   1.412       .  A
C635       Br642   1.928       .  S
C636        C637   1.409       .  A
C636       Br641   1.928       .  S
C637        C638   1.411       .  A
C638       Br639   1.934       .  S
C643        C644   1.416       .  A
C643        C648   1.411       .  A
C643       Br650   1.935       .  S
C644        C645   1.416       .  A
C645        C646   1.409       .  A
C645       Br652   1.936       .  S
C646        C647   1.417       .  A
C646       Br651   1.933       .  S
C647        C648   1.418       .  A
C648       Br649   1.935       .  S
C653        C654   1.409       .  A
C653        C658   1.407       .  A
C653       Br660   1.930       .  S
C654        C655   1.409       .  A
C655        C656   1.407       .  A
C655       Br662   1.930       .  S
C656        C657   1.410       .  A
C656       Br661   1.931       .  S
C657        C658   1.408       .  A
C658       Br659   1.929       .  S
C663        C664   1.408       .  A
C663        C668   1.409       .  A
C663       Br670   1.929       .  S
C664        C665   1.409       .  A
C665        C666   1.407       .  A
C665       Br672   1.931       .  S
C666        C667   1.410       .  A
C666       Br671   1.930       .  S
C667        C668   1.411       .  A
C668       Br669   1.929       .  S
