geometry optimzed in LAMMPS
_audit_creation_date              2020-12-01 
_audit_creation_method            'lammps2cif' 
_symmetry_space_group_name_H-M    'P1' 
_symmetry_Int_Tables_number       1 
_symmetry_cell_setting            triclinic 
loop_ 
_symmetry_equiv_pos_as_xyz 
  x,y,z 
_cell_length_a                    31.31125854 
_cell_length_b                    32.430754942188614 
_cell_length_c                    28.608646203131066 
_cell_angle_alpha                 92.9083515192128 
_cell_angle_beta                  90.21779194789794 
_cell_angle_gamma                 89.28159242705611 
loop_ 
_atom_site_label 
_atom_site_type_symbol 
_atom_site_fract_x 
_atom_site_fract_y 
_atom_site_fract_z 
_atom_site_charge 
C1          C  0.51071634  0.55434452  0.00625459     0.03700
C2          C  0.48163739  0.55188326  0.96843610    -0.12500
C3          C  0.47822993  0.58539408  0.43986183     0.01200
C4          C  0.01619950  0.60595888  0.43233897    -0.11000
C5          C  0.03959908  0.61614783  0.47308861     0.03700
C6          C  0.03873179  0.58831052  0.00970957    -0.10400
H7          H  0.45624335  0.52952585  0.96730744     0.09300
H8          H  0.01617756  0.62745323  0.40447551     0.06800
H9          H  0.05623518  0.59500373  0.04188613     0.06700
C10         C  0.50540674  0.52692058  0.04564855     0.03700
C11         C  0.04031936  0.50439590  0.06302817    -0.12500
C12         C  0.03333980  0.47565978  0.09764709     0.01200
C13         C  0.49448547  0.47769915  0.12116387    -0.11000
C14         C  0.45901013  0.48760301  0.09401085     0.03700
C15         C  0.46401573  0.51690967  0.06039490    -0.10400
H16         H  0.07075435  0.50469131  0.04514958     0.09300
H17         H  0.48994867  0.45598389  0.14835110     0.06800
H18         H  0.43592206  0.52779067  0.04237762     0.06700
O19         O  0.30860329  0.80658811  0.99726991    -0.87800
C20         C  0.42297514  0.81522385  0.44227564     0.88200
Mg21       Mg  0.29701946  0.80925581  0.07000747     1.58100
O22         O  0.37701882  0.71801664  0.42403687    -0.87500
O23         O  0.29559466  0.76779196  0.43273713    -0.74800
C24         C  0.43707808  0.67787230  0.14594527     0.93300
O25         O  0.39089951  0.85256211  0.03715811    -0.74700
O26         O  0.40719855  0.70251443  0.15893139    -0.82200
Mg27       Mg  0.34602584  0.85504847  0.47299640     1.58000
C28         C  0.44572992  0.61668754  0.95457646     0.93200
O29         O  0.29530046  0.85829966  0.41464080    -0.80400
H30         H  0.32703997  0.68308437  0.40472040    -0.05800
C31         C  0.45375068  0.73352115  0.03612155     0.88200
O32         O  0.28770719  0.73850033  0.06528626    -0.74900
O33         O  0.38410897  0.80960543  0.43844488    -0.87700
O34         O  0.43759090  0.64520407  0.42705472    -0.80500
C35         C  0.45756327  0.74965567  0.34156595     0.93300
C36         C  0.28967019  0.84646395  0.37205661     0.93200
Mg37       Mg  0.39280168  0.66682972  0.03608600     1.58000
O38         O  0.43980337  0.66349463  0.10335833    -0.80400
O39         O  0.35114338  0.66989217  0.96839627    -0.74700
O40         O  0.42251288  0.77147062  0.34397217    -0.80500
O41         O  0.31210819  0.90758450  0.51050126    -0.82200
O42         O  0.32296340  0.75584174  0.16573872    -0.80500
C43         C  0.35112331  0.69007944  0.43103059     0.87600
O44         O  0.35195566  0.71178701  0.07022148    -0.87700
O45         O  0.42645526  0.71599096  0.01183810    -0.87800
O46         O  0.44525477  0.75054589  0.07604345    -0.74800
Mg47       Mg  0.35538224  0.77017920  0.38718037     1.58000
O48         O  0.46383594  0.71918873  0.36689463    -0.82200
H49         H  0.25618011  0.77264473  0.48838702    -0.05900
O50         O  0.36363517  0.80452875  0.07977403    -0.87500
H51         H  0.41446211  0.83765594  0.10047085    -0.05800
H52         H  0.29979394  0.67680040  0.06515989    -0.05900
C53         C  0.39023162  0.83193048  0.07398374     0.87600
C54         C  0.28542570  0.78269624  0.47335058     0.88200
C55         C  0.31284669  0.70755003  0.06716275     0.88200
H56         H  0.48501496  0.73496516  0.02158806    -0.05900
O57         O  0.44916008  0.78537966  0.44595136    -0.75000
Mg58       Mg  0.38298812  0.75379147  0.11840331     1.58000
H59         H  0.43482956  0.84643082  0.44417249    -0.05900
C60         C  0.30405645  0.91204550  0.05383288     0.93200
O61         O  0.28014262  0.80733231  0.14638060    -0.82200
C62         C  0.29030739  0.77900784  0.17354006     0.93300
O63         O  0.31897433  0.82478506  0.35046299    -0.82200
Mg64       Mg  0.44233982  0.71525344  0.44010376     1.58200
O65         O  0.30159502  0.88083863  0.07915738    -0.80500
O66         O  0.43481409  0.61980767  0.99748615    -0.82200
N67         N  0.25014047  0.85933026  0.34886342    -0.02900
C68         C  0.22422903  0.89137451  0.36482964    -0.00300
C69         C  0.20158064  0.90603869  0.32736113    -0.23200
C70         C  0.20737603  0.87820051  0.29035194    -0.25000
C71         C  0.23519851  0.84817112  0.30518114    -0.00400
H72         H  0.17586306  0.92870034  0.32951942     0.13400
H73         H  0.18906401  0.87798017  0.25835753     0.13400
O74         O  0.17553486  0.83469346  0.07395327    -0.87800
C75         C  0.06190976  0.82164184  0.13210118     0.88200
Mg76       Mg  0.19064549  0.86946442  0.51474371     1.58100
O77         O  0.10810168  0.73303507  0.07667166    -0.87500
O78         O  0.18958616  0.77428974  0.10332946    -0.74800
C79         C  0.04456934  0.79744204  0.36524661     0.93300
O80         O  0.09905230  0.89659156  0.07553775    -0.74700
O81         O  0.06774116  0.82931945  0.37225352    -0.82200
Mg82       Mg  0.14243146  0.86555138  0.12964975     1.58000
C83         C  0.04985893  0.66027169  0.98227743     0.93200
O84         O  0.19136086  0.83717154  0.18002789    -0.80400
H85         H  0.15917105  0.69581953  0.06769432    -0.05800
C86         C  0.02886529  0.80542620  0.99888510     0.88200
O87         O  0.19448070  0.80992296  0.46961223    -0.74900
O88         O  0.10073059  0.81410057  0.13071967    -0.87700
O89         O  0.04782579  0.67557487  0.02397471    -0.80500
C90         C  0.03059488  0.71298222  0.16640487     0.93300
C91         C  0.19586962  0.80766268  0.20736077     0.93200
Mg92       Mg  0.09155024  0.74275291  0.44960547     1.58000
O93         O  0.04638012  0.76711104  0.39203742    -0.80400
O94         O  0.13462028  0.71522286  0.00669498    -0.74700
O95         O  0.06477322  0.73179554  0.18152994    -0.80500
O96         O  0.18442384  0.92099451  0.13099762    -0.82200
O97         O  0.16127680  0.87090790  0.40171916    -0.80500
C98         C  0.13446933  0.71369522  0.05126184     0.87600
O99         O  0.12874664  0.79546673  0.45088607    -0.87700
O100        O  0.05605729  0.77678812  0.00491700    -0.87800
O101        O  0.03789669  0.83700751  0.47668146    -0.74800
Mg102      Mg  0.12993929  0.75544916  0.14298472     1.58000
O103        O  0.02480693  0.70491143  0.12334844    -0.82200
H104        H  0.22871348  0.80312923  0.06014503    -0.05900
O105        O  0.12363797  0.87713488  0.50509873    -0.87500
H106        H  0.07498493  0.91722768  0.01483032    -0.05800
H107        H  0.17807406  0.76145997  0.42601697    -0.05900
C108        C  0.09877091  0.89802641  0.03090926     0.87600
C109        C  0.19934574  0.80446240  0.07881172     0.88200
C110        C  0.16731832  0.78803937  0.44732397     0.88200
H111        H  0.99772923  0.80410460  0.01495698    -0.05900
O112        O  0.03526784  0.79920344  0.10926064    -0.75000
Mg113      Mg  0.09934281  0.85373967  0.43992869     1.58000
H114        H  0.05044582  0.84853166  0.15240803    -0.05900
C115        C  0.19541411  0.94342707  0.09821682     0.93200
O116        O  0.21162137  0.89951088  0.44782217    -0.82200
C117        C  0.19798363  0.88750768  0.40743246     0.93300
O118        O  0.16689106  0.78004513  0.21005675    -0.82200
Mg119      Mg  0.04278163  0.73904696  0.06392721     1.58200
O120        O  0.18931248  0.93262792  0.05534496    -0.80500
O121        O  0.05596905  0.68296575  0.44810746    -0.82200
N122        N  0.49227519  0.76098686  0.31184249    -0.02900
C123        C  0.49574773  0.75215988  0.26523890    -0.00300
C124        C  0.01668097  0.78415381  0.24510650    -0.23200
C125        C  0.03197496  0.80958501  0.28106524    -0.23400
C126        C  0.01841642  0.79330626  0.32199997    -0.00400
H127        H  0.02225269  0.78821329  0.20857426     0.13400
H128        H  0.05461351  0.83419552  0.27761248     0.13400
N129        N  0.23623817  0.80357150  0.23199955    -0.02900
C130        C  0.24093795  0.80755794  0.27906002    -0.00300
C131        C  0.26595214  0.77542797  0.29436418    -0.23200
C132        C  0.28317246  0.75578745  0.25506342    -0.23400
C133        C  0.26611072  0.77532807  0.21734337    -0.00400
H134        H  0.27416077  0.76895503  0.32995560     0.13400
H135        H  0.30913487  0.73341183  0.25454895     0.13400
N136        N  0.99745770  0.69869470  0.19694741    -0.02900
C137        C  0.46878150  0.66881869  0.18314091    -0.00300
C138        C  0.45045468  0.65446288  0.22302681    -0.23200
C139        C  0.46097151  0.68152642  0.25960249    -0.23400
C140        C  0.98780124  0.71054414  0.24199613    -0.00400
H141        H  0.42375908  0.63358797  0.22373058     0.13400
H142        H  0.44535903  0.68214471  0.29304063     0.13400
O143        O  0.42866516  0.34226314  0.07420295    -0.87800
C144        C  0.31473776  0.31816636  0.11771876     0.88200
Mg145      Mg  0.44364184  0.36896492  0.50893873     1.58100
O146        O  0.37785426  0.23147086  0.08109222    -0.87500
O147        O  0.45237038  0.29175814  0.11544359    -0.74800
C148        C  0.31883786  0.26208258  0.35919980     0.93300
O149        O  0.34518982  0.38872135  0.05500374    -0.74700
O150        O  0.34296914  0.29357524  0.35841515    -0.82200
Mg151      Mg  0.38614140  0.37239626  0.12013839     1.58000
C152        C  0.32647414  0.14210472  0.99124608     0.93200
O153        O  0.43337551  0.35711490  0.18291550    -0.80400
H154        H  0.43290033  0.19966243  0.08431108    -0.05800
C155        C  0.29841660  0.26916775  0.47711962     0.88200
O156        O  0.46130614  0.30529701  0.47632188    -0.74900
O157        O  0.35376474  0.31631337  0.12392825    -0.87700
O158        O  0.32330042  0.15863144  0.03264136    -0.80500
C159        C  0.29702987  0.21810500  0.17483774     0.93300
C160        C  0.43783795  0.32934511  0.21290485     0.93200
Mg161      Mg  0.37153197  0.22152282  0.45242928     1.58000
O162        O  0.32470308  0.23465128  0.38925264    -0.80400
O163        O  0.41220783  0.20658329  0.01772215    -0.74700
O164        O  0.32957315  0.24068093  0.18416076    -0.80500
O165        O  0.41922501  0.43159705  0.11633870    -0.82200
O166        O  0.42590705  0.35234557  0.38720052    -0.80500
C167        C  0.40820361  0.21186057  0.06218717     0.87600
O168        O  0.40240560  0.27822708  0.44808919    -0.87700
O169        O  0.32814459  0.25199281  0.99693704    -0.87800
O170        O  0.30341648  0.30240256  0.45599293    -0.74800
Mg171      Mg  0.39078727  0.26505817  0.14637118     1.58000
O172        O  0.29041132  0.20347710  0.13319249    -0.82200
H173        H  0.48937102  0.33746557  0.09133622    -0.05900
O174        O  0.37786499  0.36317634  0.49080029    -0.87500
H175        H  0.32332938  0.39597829  0.48879125    -0.05800
H176        H  0.45932757  0.25041636  0.43924487    -0.05900
C177        C  0.34815162  0.38321691  0.01039394     0.87600
C178        C  0.45824191  0.32416925  0.09295758     0.88200
C179        C  0.44158322  0.27705263  0.45320168     0.88200
H180        H  0.26826495  0.25397633  0.97617659    -0.05900
O181        O  0.29499785  0.29031032  0.09400429    -0.75000
Mg182      Mg  0.36470901  0.32890960  0.42533426     1.58000
H183        H  0.29721852  0.34514593  0.13112486    -0.05900
C184        C  0.43263949  0.45141432  0.08247429     0.93200
O185        O  0.46344072  0.39222299  0.43718545    -0.82200
C186        C  0.45795080  0.37561624  0.39610825     0.93300
O187        O  0.41200444  0.29923075  0.21366864    -0.82200
Mg188      Mg  0.31211637  0.22617140  0.06219553     1.58200
O189        O  0.43247958  0.43630161  0.04023641    -0.80500
O190        O  0.34033754  0.16144882  0.45724411    -0.82200
N191        N  0.28168624  0.26010014  0.32893301    -0.02900
C192        C  0.28675989  0.25427885  0.28173404    -0.00300
C193        C  0.26868561  0.28801462  0.26036858    -0.23200
C194        C  0.24494238  0.30981231  0.29368672    -0.23400
C195        C  0.25118259  0.29034518  0.33488915    -0.00400
H196        H  0.26374924  0.29072676  0.22317035     0.13400
H197        H  0.22054819  0.33265702  0.28671788     0.13400
O198        O  0.18999088  0.26205674  0.00879367    -0.87800
C199        C  0.08337209  0.27938105  0.43462216     0.88200
Mg200      Mg  0.19854835  0.22314738  0.06644508     1.58100
O201        O  0.12119309  0.36524834  0.50247241    -0.87500
O202        O  0.20445830  0.32468272  0.48644538    -0.74800
C203        C  0.03696632  0.29378394  0.20071473     0.93300
O204        O  0.11373482  0.20252473  0.99572777    -0.74700
O205        O  0.06250316  0.26242848  0.19792731    -0.82200
Mg206      Mg  0.16213917  0.23303952  0.44743342     1.58000
C207        C  0.05039231  0.43322988  0.09027285     0.93200
O208        O  0.21388031  0.26045939  0.39788437    -0.80400
H209        H  0.16981981  0.40247915  0.51984052    -0.05800
C210        C  0.04098415  0.28584866  0.06144503     0.88200
O211        O  0.19991217  0.28124849  0.11598974    -0.74900
O212        O  0.12135433  0.28591364  0.44393543    -0.87700
O213        O  0.05280103  0.41877013  0.04837757    -0.80500
C214        C  0.05731414  0.38897018  0.40245362     0.93300
C215        C  0.21759756  0.29140997  0.37214522     0.93200
Mg216      Mg  0.09286617  0.34973675  0.12509516     1.58000
O217        O  0.04127844  0.32398039  0.17424317    -0.80400
O218        O  0.14070048  0.37975671  0.07610202    -0.74700
O219        O  0.09237200  0.36875095  0.39365131    -0.80500
O220        O  0.20109013  0.17288167  0.44866967    -0.82200
O221        O  0.16318147  0.21679218  0.17845623    -0.80500
C222        C  0.14433861  0.38368190  0.03205292     0.87600
O223        O  0.13246345  0.29660329  0.12759998    -0.87700
O224        O  0.06508506  0.31714257  0.06231248    -0.87800
O225        O  0.04708801  0.25578875  0.08750328    -0.74800
Mg226      Mg  0.15072917  0.34457725  0.43935644     1.58000
O227        O  0.04470144  0.39726480  0.44377657    -0.82200
H228        H  0.23738940  0.29602835  0.03608206    -0.05900
O229        O  0.13207769  0.21679781  0.06968861    -0.87500
H230        H  0.08329218  0.18001612  0.05138511    -0.05800
H231        H  0.17934080  0.32864657  0.15958976    -0.05900
C232        C  0.10911928  0.19873222  0.03970492     0.87600
C233        C  0.21110024  0.29414472  0.51170138     0.88200
C234        C  0.17064497  0.30309822  0.13585307     0.88200
H235        H  0.01398085  0.28469048  0.03769157    -0.05900
O236        O  0.05372391  0.30117800  0.45380738    -0.75000
Mg237      Mg  0.10294087  0.23816164  0.13356918     1.58000
H238        H  0.07517578  0.25397220  0.41045630    -0.05900
C239        C  0.20614281  0.14876880  0.98213804     0.93200
O240        O  0.20955037  0.18595741  0.12841768    -0.82200
C241        C  0.19846222  0.19692346  0.16967569     0.93300
O242        O  0.19138628  0.32209252  0.37551292    -0.82200
Mg243      Mg  0.05473679  0.35853213  0.50427274     1.58200
O244        O  0.20033755  0.16142434  0.02425939    -0.80500
O245        O  0.05550972  0.41022211  0.12454813    -0.82200
N246        N  0.48795716  0.38424920  0.35894164    -0.02900
C247        C  0.48161896  0.37786952  0.31190241    -0.00300
C248        C  0.01321444  0.39870742  0.28876911    -0.23200
C249        C  0.04334295  0.41080360  0.32149110    -0.23400
C250        C  0.02812899  0.39991275  0.36411588    -0.00400
H251        H  0.01935857  0.39660903  0.25148901     0.13400
H252        H  0.07545645  0.42047005  0.31398141     0.13400
N253        N  0.26807874  0.20762974  0.21225773    -0.02900
C254        C  0.27545679  0.21315611  0.25919865    -0.00300
C255        C  0.24579412  0.19023391  0.28268396    -0.23200
C256        C  0.21578160  0.17673591  0.25052602    -0.23400
C257        C  0.22915789  0.18906429  0.20775681    -0.00400
H258        H  0.24070869  0.19109301  0.32014372     0.13400
H259        H  0.18479328  0.16452538  0.25856159     0.13400
N260        N  0.47488881  0.32928436  0.24335938    -0.02900
C261        C  0.46994462  0.33645135  0.29041987    -0.00300
C262        C  0.98705046  0.30289012  0.31294805    -0.23200
C263        C  0.00943646  0.27904073  0.28019440    -0.23400
C264        C  0.00362890  0.29727557  0.23819304    -0.00400
H265        H  0.99215506  0.30117120  0.35025278     0.13400
H266        H  0.03288707  0.25548894  0.28781193     0.13400
C267        C  0.25997449  0.01916370  0.05163285     0.03700
C268        C  0.22544483  0.01090200  0.08127853    -0.12500
C269        C  0.22705842  0.97551294  0.10794556     0.01200
C270        C  0.26659767  0.95613498  0.11356326    -0.11000
C271        C  0.29221293  0.95377578  0.07377975     0.03700
C272        C  0.29197744  0.98811668  0.04550363    -0.10400
H273        H  0.19601802  0.02859986  0.08014277     0.09300
H274        H  0.26808904  0.93049874  0.13654533     0.06800
H275        H  0.31367901  0.98866961  0.01613849     0.06700
C276        C  0.26092958  0.05580540  0.02198351     0.03700
C277        C  0.30069424  0.07334763  0.01223894    -0.12500
C278        C  0.30289980  0.10426093  0.97994790     0.01200
C279        C  0.26715431  0.11136659  0.45198414    -0.11000
C280        C  0.22803011  0.10829095  0.97409740     0.03700
C281        C  0.22381285  0.07681830  0.00636946    -0.10400
H282        H  0.32880698  0.06557308  0.03233853     0.09300
H283        H  0.26980046  0.13439935  0.42589530     0.06800
H284        H  0.19276168  0.07118133  0.02094723     0.06700
C285        C  0.51071186  0.55432901  0.50624186     0.03700
C286        C  0.48163362  0.55186492  0.46842253    -0.12500
C287        C  0.47824197  0.58540843  0.93986841     0.01200
C288        C  0.01621471  0.60596785  0.93234196    -0.11000
C289        C  0.03962328  0.61615099  0.97308570     0.03700
C290        C  0.03871762  0.58830128  0.50970503    -0.10400
H291        H  0.45624425  0.52950224  0.46729172     0.09300
H292        H  0.01619553  0.62746327  0.90447952     0.06800
H293        H  0.05621620  0.59499570  0.54188461     0.06700
C294        C  0.50540403  0.52690738  0.54563532     0.03700
C295        C  0.04031701  0.50438391  0.56301420    -0.12500
C296        C  0.03333781  0.47565189  0.59763688     0.01200
C297        C  0.49448613  0.47769846  0.62115972    -0.11000
C298        C  0.45900943  0.48760018  0.59400858     0.03700
C299        C  0.46401394  0.51690248  0.56038788    -0.10400
H300        H  0.07075036  0.50467555  0.54513180     0.09300
H301        H  0.48994876  0.45598649  0.64835027     0.06800
H302        H  0.43591999  0.52778280  0.54237031     0.06700
O303        O  0.30858979  0.80655381  0.49725753    -0.87800
C304        C  0.42302428  0.81524703  0.94232958     0.88200
Mg305      Mg  0.29704750  0.80923927  0.57000477     1.58100
O306        O  0.37706236  0.71804408  0.92401774    -0.87500
O307        O  0.29565334  0.76782690  0.93273493    -0.74800
C308        C  0.43712723  0.67787681  0.64598161     0.93300
O309        O  0.39089135  0.85253914  0.53708772    -0.74700
O310        O  0.40725870  0.70253428  0.65896300    -0.82200
Mg311      Mg  0.34606791  0.85507922  0.97304472     1.58000
C312        C  0.44572137  0.61667110  0.45458687     0.93200
O313        O  0.29537389  0.85834347  0.91466777    -0.80400
H314        H  0.32709142  0.68312098  0.90464925    -0.05800
C315        C  0.45377561  0.73348714  0.53611955     0.88200
O316        O  0.28774091  0.73848152  0.56531599    -0.74900
O317        O  0.38415843  0.80963298  0.93849371    -0.87700
O318        O  0.43762102  0.64522624  0.92704501    -0.80500
C319        C  0.45763929  0.74969231  0.84159515     0.93300
C320        C  0.28975318  0.84651604  0.87207987     0.93200
Mg321      Mg  0.39282689  0.66681350  0.53612305     1.58000
O322        O  0.43984475  0.66348731  0.60339667    -0.80400
O323        O  0.35114033  0.66986918  0.46845032    -0.74700
O324        O  0.42259291  0.77151458  0.84400206    -0.80500
O325        O  0.31214094  0.90761096  0.01055698    -0.82200
O326        O  0.32302121  0.75585932  0.66576576    -0.80500
C327        C  0.35115756  0.69010781  0.93098128     0.87600
O328        O  0.35198763  0.71176402  0.57027001    -0.87700
O329        O  0.42646021  0.71597656  0.51184714    -0.87800
O330        O  0.44529894  0.75052010  0.57604217    -0.74800
Mg331      Mg  0.35544877  0.77022524  0.88719329     1.58000
O332        O  0.46390495  0.71922234  0.86692102    -0.82200
H333        H  0.25621932  0.77264914  0.98836634    -0.05900
O334        O  0.36366875  0.80450899  0.57974178    -0.87500
H335        H  0.41451289  0.83763789  0.60037650    -0.05800
H336        H  0.29982202  0.67678185  0.56522611    -0.05900
C337        C  0.39025971  0.83190873  0.57391635     0.87600
C338        C  0.28546255  0.78272067  0.97334618     0.88200
C339        C  0.31287787  0.70753048  0.56721272     0.88200
H340        H  0.48504122  0.73490192  0.52157998    -0.05900
O341        O  0.44920527  0.78539717  0.94598296    -0.75000
Mg342      Mg  0.38303538  0.75379179  0.61841095     1.58000
H343        H  0.43488230  0.84645280  0.94424439    -0.05900
C344        C  0.30405711  0.91203072  0.55378291     0.93200
O345        O  0.28019691  0.80734023  0.64638952    -0.82200
C346        C  0.29036614  0.77902755  0.67356255     0.93300
O347        O  0.31906034  0.82484159  0.85048704    -0.82200
Mg348      Mg  0.44237495  0.71527296  0.94011256     1.58200
O349        O  0.30162458  0.88083025  0.57912267    -0.80500
O350        O  0.43483311  0.61979726  0.49750528    -0.82200
N351        N  0.25022924  0.85938714  0.84888238    -0.02900
C352        C  0.22432362  0.89143379  0.86485242    -0.00300
C353        C  0.20168724  0.90610831  0.82738029    -0.23200
C354        C  0.20748499  0.87827465  0.79036399    -0.25000
C355        C  0.23529395  0.84823539  0.80519449    -0.00400
H356        H  0.17597525  0.92877566  0.82953733     0.13400
H357        H  0.18918077  0.87805913  0.75836388     0.13400
O358        O  0.17553194  0.83465952  0.57395733    -0.87800
C359        C  0.06194155  0.82162125  0.63215209     0.88200
Mg360      Mg  0.19068489  0.86951996  0.01476240     1.58100
O361        O  0.10811890  0.73303668  0.57667670    -0.87500
O362        O  0.18962674  0.77427078  0.60334085    -0.74800
C363        C  0.04467675  0.79744675  0.86523469     0.93300
O364        O  0.09904551  0.89655661  0.57556567    -0.74700
O365        O  0.06785079  0.82932299  0.87223570    -0.82200
Mg366      Mg  0.14245150  0.86553418  0.62966376     1.58000
C367        C  0.04981412  0.66027142  0.48229146     0.93200
O368        O  0.19139820  0.83718378  0.68004783    -0.80400
H369        H  0.15918057  0.69581845  0.56764503    -0.05800
C370        C  0.02880263  0.80541140  0.49892184     0.88200
O371        O  0.19455818  0.80998593  0.96962683    -0.74900
O372        O  0.10076315  0.81408330  0.63076163    -0.87700
O373        O  0.04783450  0.67555800  0.52399939    -0.80500
C374        C  0.03065112  0.71296735  0.66644273     0.93300
C375        C  0.19592674  0.80767815  0.70738211     0.93200
Mg376      Mg  0.09164394  0.74276034  0.94960522     1.58000
O377        O  0.04649305  0.76711405  0.89202251    -0.80400
O378        O  0.13456222  0.71520887  0.50667003    -0.74700
O379        O  0.06482524  0.73179021  0.68156334    -0.80500
O380        O  0.18443363  0.92097619  0.63097580    -0.82200
O381        O  0.16137218  0.87094175  0.90172540    -0.80500
C382        C  0.13446253  0.71369365  0.55123926     0.87600
O383        O  0.12883232  0.79549185  0.95090862    -0.87700
O384        O  0.05601054  0.77678640  0.50494821    -0.87800
O385        O  0.03797646  0.83702086  0.97664993    -0.74800
Mg386      Mg  0.12998513  0.75543477  0.64300076     1.58000
O387        O  0.02487178  0.70487481  0.62338957    -0.82200
H388        H  0.22873327  0.80313575  0.56016068    -0.05900
O389        O  0.12368572  0.87717839  0.00508501    -0.87500
H390        H  0.07493764  0.91718010  0.51487138    -0.05800
H391        H  0.17817668  0.76150578  0.92604478    -0.05900
C392        C  0.09873642  0.89798398  0.53093708     0.87600
C393        C  0.19936672  0.80444742  0.57882142     0.88200
C394        C  0.16740724  0.78808176  0.94734774     0.88200
H395        H  0.99766918  0.80407666  0.51499746    -0.05900
O396        O  0.03529556  0.79918296  0.60931587    -0.75000
Mg397      Mg  0.09942617  0.85375920  0.93991483     1.58000
H398        H  0.05047978  0.84850858  0.65246441    -0.05900
C399        C  0.19542299  0.94339341  0.59818215     0.93200
O400        O  0.21168618  0.89957747  0.94784597    -0.82200
C401        C  0.19806884  0.88756046  0.90745034     0.93300
O402        O  0.16696978  0.78003592  0.71006776    -0.82200
Mg403      Mg  0.04279130  0.73903091  0.56396762     1.58200
O404        O  0.18932577  0.93257578  0.55531423    -0.80500
O405        O  0.05608046  0.68294870  0.94809115    -0.82200
N406        N  0.49234896  0.76100821  0.81186061    -0.02900
C407        C  0.49579963  0.75217783  0.76525701    -0.00300
C408        C  0.01673335  0.78416360  0.74511073    -0.23200
C409        C  0.03205291  0.80959094  0.78105912    -0.23400
C410        C  0.01850650  0.79331797  0.82200176    -0.00400
H411        H  0.02229089  0.78821537  0.70857487     0.13400
H412        H  0.05469934  0.83419253  0.77759264     0.13400
N413        N  0.23630139  0.80361221  0.73202031    -0.02900
C414        C  0.24100741  0.80761183  0.77908181    -0.00300
C415        C  0.26601707  0.77548176  0.79439381    -0.23200
C416        C  0.28323284  0.75582958  0.75509791    -0.23400
C417        C  0.26617337  0.77536411  0.71737278    -0.00400
H418        H  0.27422909  0.76901819  0.82998688     0.13400
H419        H  0.30919135  0.73345005  0.75458882     0.13400
N420        N  0.99750827  0.69869297  0.69698593    -0.02900
C421        C  0.46882662  0.66882059  0.68318265    -0.00300
C422        C  0.45049015  0.65447996  0.72307165    -0.23200
C423        C  0.46100298  0.68155399  0.75963944    -0.23400
C424        C  0.98784404  0.71055923  0.74202761    -0.00400
H425        H  0.42378964  0.63361108  0.72377771     0.13400
H426        H  0.44538031  0.68218859  0.79307253     0.13400
O427        O  0.42860651  0.34224966  0.57420903    -0.87800
C428        C  0.31464303  0.31823737  0.61771217     0.88200
Mg429      Mg  0.44364650  0.36897596  0.00892745     1.58100
O430        O  0.37770042  0.23148637  0.58112544    -0.87500
O431        O  0.45224834  0.29173291  0.61547569    -0.74800
C432        C  0.31881691  0.26205186  0.85920184     0.93300
O433        O  0.34516695  0.38875758  0.55497569    -0.74700
O434        O  0.34293803  0.29355253  0.85841733    -0.82200
Mg435      Mg  0.38608593  0.37241739  0.62012706     1.58000
C436        C  0.32634740  0.14215344  0.49124332     0.93200
O437        O  0.43328781  0.35711805  0.68291192    -0.80400
H438        H  0.43272367  0.19964736  0.58438617    -0.05800
C439        C  0.29847105  0.26910424  0.97717667     0.88200
O440        O  0.46132626  0.30530719  0.97631853    -0.74900
O441        O  0.35366675  0.31635546  0.62392929    -0.87700
O442        O  0.32309065  0.15870100  0.53262190    -0.80500
C443        C  0.29684376  0.21815411  0.67483297     0.93300
C444        C  0.43773112  0.32935526  0.71291070     0.93200
Mg445      Mg  0.37159228  0.22149341  0.95239770     1.58000
O446        O  0.32470579  0.23461725  0.88924871    -0.80400
O447        O  0.41209179  0.20659805  0.51778169    -0.74700
O448        O  0.32940369  0.24070605  0.68417354    -0.80500
O449        O  0.41920980  0.43160065  0.61633356    -0.82200
O450        O  0.42587822  0.35233182  0.88719531    -0.80500
C451        C  0.40805157  0.21186287  0.56224293     0.87600
O452        O  0.40244318  0.27820976  0.94805593    -0.87700
O453        O  0.32806134  0.25205153  0.49692524    -0.87800
O454        O  0.30343916  0.30233771  0.95603778    -0.74800
Mg455      Mg  0.39064069  0.26507550  0.64639658     1.58000
O456        O  0.29020621  0.20357019  0.63317294    -0.82200
H457        H  0.48929562  0.33741373  0.59139631    -0.05900
O458        O  0.37786920  0.36314359  0.99081601    -0.87500
H459        H  0.32332108  0.39592823  0.98882826    -0.05800
H460        H  0.45938182  0.25042497  0.93924243    -0.05900
C461        C  0.34814654  0.38325736  0.51036694     0.87600
C462        C  0.45815778  0.32413580  0.59298674     0.88200
C463        C  0.44162088  0.27705462  0.95318880     0.88200
H464        H  0.26821308  0.25403693  0.47605290    -0.05900
O465        O  0.29488858  0.29039814  0.59398904    -0.75000
Mg466      Mg  0.36470141  0.32887926  0.92534423     1.58000
H467        H  0.29714165  0.34522848  0.63111661    -0.05900
C468        C  0.43264244  0.45140981  0.58247179     0.93200
O469        O  0.46339947  0.39223574  0.93716550    -0.82200
C470        C  0.45791662  0.37561035  0.89609653     0.93300
O471        O  0.41187489  0.29925823  0.71368976    -0.82200
Mg472      Mg  0.31196554  0.22624775  0.56218151     1.58200
O473        O  0.43249793  0.43629044  0.54023777    -0.80500
O474        O  0.34041356  0.16141335  0.95723150    -0.82200
N475        N  0.28164468  0.26007113  0.82895623    -0.02900
C476        C  0.28668354  0.25425907  0.78174854    -0.00300
C477        C  0.26865455  0.28803158  0.76041223    -0.23200
C478        C  0.24494314  0.30983770  0.79374847    -0.23400
C479        C  0.25116891  0.29034018  0.83493232    -0.00400
H480        H  0.26370573  0.29076657  0.72321953     0.13400
H481        H  0.22057081  0.33270982  0.78680101     0.13400
O482        O  0.18989896  0.26200354  0.50874663    -0.87800
C483        C  0.08340682  0.27935922  0.93471561     0.88200
Mg484      Mg  0.19840775  0.22307413  0.56639385     1.58100
O485        O  0.12120455  0.36527986  0.00248976    -0.87500
O486        O  0.20448876  0.32474051  0.98646071    -0.74800
C487        C  0.03684444  0.29375978  0.70066778     0.93300
O488        O  0.11363716  0.20252417  0.49562034    -0.74700
O489        O  0.06235738  0.26238764  0.69785659    -0.82200
Mg490      Mg  0.16219102  0.23305605  0.94751255     1.58000
C491        C  0.05037873  0.43321889  0.59025871     0.93200
O492        O  0.21389285  0.26047183  0.89794476    -0.80400
H493        H  0.16981487  0.40254245  0.01982224    -0.05800
C494        C  0.04088714  0.28585513  0.56137379     0.88200
O495        O  0.19979366  0.28116957  0.61594316    -0.74900
O496        O  0.12138434  0.28591490  0.94402920    -0.87700
O497        O  0.05279161  0.41876332  0.54836213    -0.80500
C498        C  0.05728451  0.38892359  0.90247020     0.93300
C499        C  0.21758958  0.29141013  0.87218784     0.93200
Mg500      Mg  0.09279079  0.34970075  0.62506725     1.58000
O501        O  0.04117550  0.32396445  0.67421034    -0.80400
O502        O  0.14066078  0.37970261  0.57609786    -0.74700
O503        O  0.09235267  0.36871804  0.89367994    -0.80500
O504        O  0.20114708  0.17290082  0.94871389    -0.82200
O505        O  0.16301171  0.21675845  0.67839005    -0.80500
C506        C  0.14432491  0.38363153  0.53205222     0.87600
O507        O  0.13234987  0.29655055  0.62755729    -0.87700
O508        O  0.06501251  0.31713124  0.56226038    -0.87800
O509        O  0.04695693  0.25578497  0.58742485    -0.74800
Mg510      Mg  0.15072923  0.34458554  0.93938285     1.58000
O511        O  0.04465951  0.39721519  0.94379060    -0.82200
H512        H  0.23730705  0.29593058  0.53607476    -0.05900
O513        O  0.13193181  0.21677064  0.56960447    -0.87500
H514        H  0.08312582  0.18003268  0.55124378    -0.05800
H515        H  0.17924203  0.32856837  0.65955349    -0.05900
C516        C  0.10897920  0.19873133  0.53959346     0.87600
C517        C  0.21117117  0.29421339  0.01172152     0.88200
C518        C  0.17053494  0.30302706  0.63581169     0.88200
H519        H  0.01388715  0.28472502  0.53761567    -0.05900
O520        O  0.05374735  0.30115084  0.95388443    -0.75000
Mg521      Mg  0.10279122  0.23812581  0.63349336     1.58000
H522        H  0.07522534  0.25393537  0.91056445    -0.05900
C523        C  0.20603264  0.14872421  0.48207990     0.93200
O524        O  0.20937877  0.18588049  0.62838463    -0.82200
C525        C  0.19829386  0.19688811  0.66963381     0.93300
O526        O  0.19136553  0.32208223  0.87554064    -0.82200
Mg527      Mg  0.05475190  0.35852243  0.00431624     1.58200
O528        O  0.20014876  0.16134627  0.52419953    -0.80500
O529        O  0.05547899  0.41020553  0.62453090    -0.82200
N530        N  0.48793167  0.38422510  0.85893407    -0.02900
C531        C  0.48159823  0.37784308  0.81189413    -0.00300
C532        C  0.01321985  0.39864724  0.78876288    -0.23200
C533        C  0.04334779  0.41073182  0.82149040    -0.23400
C534        C  0.02811375  0.39986419  0.86411576    -0.00400
H535        H  0.01937212  0.39653529  0.75148442     0.13400
H536        H  0.07547064  0.42037517  0.81398679     0.13400
N537        N  0.26789642  0.20765346  0.71224859    -0.02900
C538        C  0.27526911  0.21317208  0.75919456    -0.00300
C539        C  0.24558132  0.19027917  0.78267867    -0.23200
C540        C  0.21558636  0.17676410  0.75050999    -0.23400
C541        C  0.22898141  0.18907219  0.70773811    -0.00400
H542        H  0.24048499  0.19114967  0.82013697     0.13400
H543        H  0.18459610  0.16455142  0.75853463     0.13400
N544        N  0.47479295  0.32927608  0.74334728    -0.02900
C545        C  0.46987168  0.33643937  0.79041104    -0.00300
C546        C  0.98696241  0.30286206  0.81292187    -0.23200
C547        C  0.00932560  0.27900782  0.78015215    -0.23400
C548        C  0.00351634  0.29725589  0.73815853    -0.00400
H549        H  0.99207938  0.30113337  0.85022365     0.13400
H550        H  0.03276622  0.25544245  0.78775389     0.13400
C551        C  0.25994727  0.01914231  0.55157275     0.03700
C552        C  0.22542758  0.01087283  0.58122706    -0.12500
C553        C  0.22705909  0.97548809  0.60789793     0.01200
C554        C  0.26660565  0.95612331  0.61351111    -0.11000
C555        C  0.29221272  0.95376455  0.57372170     0.03700
C556        C  0.29195943  0.98810299  0.54543790    -0.10400
H557        H  0.19599566  0.02856304  0.58009861     0.09300
H558        H  0.26810898  0.93049126  0.63649819     0.06800
H559        H  0.31365446  0.98866067  0.51606732     0.06700
C560        C  0.26088124  0.05578833  0.52192886     0.03700
C561        C  0.30063344  0.07336367  0.51220404    -0.12500
C562        C  0.30282023  0.10428650  0.47992278     0.01200
C563        C  0.26722916  0.11136906  0.95202462    -0.11000
C564        C  0.22795214  0.10826037  0.47404393     0.03700
C565        C  0.22375154  0.07677890  0.50630917    -0.10400
H566        H  0.32874675  0.06560682  0.53231157     0.09300
H567        H  0.26988236  0.13439855  0.92593292     0.06800
H568        H  0.19270180  0.07111696  0.52087650     0.06700
C569        C  0.01071628  0.55434455  0.00625459     0.03700
C570        C  0.98163729  0.55188334  0.96843613    -0.12500
C571        C  0.97822986  0.58539411  0.43986186     0.01200
C572        C  0.51619956  0.60595886  0.43233892    -0.11000
C573        C  0.53959917  0.61614780  0.47308855     0.03700
C574        C  0.53873183  0.58831050  0.00970959    -0.10400
H575        H  0.95624310  0.52952581  0.96730748     0.09300
H576        H  0.51617760  0.62745318  0.40447552     0.06800
H577        H  0.55623520  0.59500374  0.04188619     0.06700
C578        C  0.00540671  0.52692058  0.04564853     0.03700
C579        C  0.54031939  0.50439589  0.06302819    -0.12500
C580        C  0.53333982  0.47565978  0.09764712     0.01200
C581        C  0.99448545  0.47769911  0.12116383    -0.11000
C582        C  0.95901012  0.48760296  0.09401081     0.03700
C583        C  0.96401570  0.51690964  0.06039488    -0.10400
H584        H  0.57075437  0.50469127  0.04514961     0.09300
H585        H  0.98994866  0.45598385  0.14835104     0.06800
H586        H  0.93592197  0.52779067  0.04237759     0.06700
O587        O  0.80860331  0.80658815  0.99726996    -0.87800
C588        C  0.92297503  0.81522394  0.44227574     0.88200
Mg589      Mg  0.79701946  0.80925585  0.07000753     1.58100
O590        O  0.87701873  0.71801673  0.42403693    -0.87500
O591        O  0.79559453  0.76779207  0.43273720    -0.74800
C592        C  0.93707807  0.67787239  0.14594532     0.93300
O593        O  0.89089946  0.85256216  0.03715813    -0.74700
O594        O  0.90719857  0.70251455  0.15893147    -0.82200
Mg595      Mg  0.84602572  0.85504858  0.47299648     1.58000
C596        C  0.94572981  0.61668762  0.95457650     0.93200
O597        O  0.79530036  0.85829973  0.41464087    -0.80400
H598        H  0.82703986  0.68308447  0.40472044    -0.05800
C599        C  0.95375041  0.73352122  0.03612166     0.88200
O600        O  0.78770714  0.73850039  0.06528635    -0.74900
O601        O  0.88410886  0.80960553  0.43844498    -0.87700
O602        O  0.93759086  0.64520414  0.42705474    -0.80500
C603        C  0.95756319  0.74965576  0.34156600     0.93300
C604        C  0.78967011  0.84646403  0.37205668     0.93200
Mg605      Mg  0.89280160  0.66682981  0.03608606     1.58000
O606        O  0.93980330  0.66349470  0.10335838    -0.80400
O607        O  0.85114329  0.66989228  0.96839630    -0.74700
O608        O  0.92251282  0.77147075  0.34397225    -0.80500
O609        O  0.81210805  0.90758458  0.51050134    -0.82200
O610        O  0.82296338  0.75584181  0.16573883    -0.80500
C611        C  0.85112322  0.69007953  0.43103064     0.87600
O612        O  0.85195562  0.71178709  0.07022158    -0.87700
O613        O  0.92645511  0.71599105  0.01183816    -0.87800
O614        O  0.94525466  0.75054599  0.07604355    -0.74800
Mg615      Mg  0.85538216  0.77017930  0.38718044     1.58000
O616        O  0.96383582  0.71918879  0.36689463    -0.82200
H617        H  0.75618054  0.77264495  0.48838684    -0.05900
O618        O  0.86363513  0.80452883  0.07977412    -0.87500
H619        H  0.91446212  0.83765601  0.10047089    -0.05800
H620        H  0.79979384  0.67680032  0.06516005    -0.05900
C621        C  0.89023159  0.83193055  0.07398378     0.87600
C622        C  0.78542553  0.78269631  0.47335066     0.88200
C623        C  0.81284665  0.70755011  0.06716288     0.88200
H624        H  0.98501627  0.73496537  0.02158771    -0.05900
O625        O  0.94915998  0.78537976  0.44595139    -0.75000
Mg626      Mg  0.88298808  0.75379156  0.11840339     1.58000
H627        H  0.93482945  0.84643093  0.44417261    -0.05900
C628        C  0.80405637  0.91204552  0.05383294     0.93200
O629        O  0.78014255  0.80733234  0.14638065    -0.82200
C630        C  0.79030734  0.77900789  0.17354014     0.93300
O631        O  0.81897425  0.82478515  0.35046306    -0.82200
Mg632      Mg  0.94233974  0.71525352  0.44010378     1.58200
O633        O  0.80159497  0.88083867  0.07915744    -0.80500
O634        O  0.93481396  0.61980773  0.99748619    -0.82200
N635        N  0.75014039  0.85933034  0.34886347    -0.02900
C636        C  0.72422897  0.89137461  0.36482968    -0.00300
C637        C  0.70158060  0.90603880  0.32736116    -0.23200
C638        C  0.70737598  0.87820062  0.29035195    -0.25000
C639        C  0.73519845  0.84817121  0.30518119    -0.00400
H640        H  0.67586311  0.92870043  0.32951944     0.13400
H641        H  0.68906408  0.87798029  0.25835769     0.13400
O642        O  0.67553488  0.83469346  0.07395326    -0.87800
C643        C  0.56190970  0.82164180  0.13210119     0.88200
Mg644      Mg  0.69064541  0.86946452  0.51474376     1.58100
O645        O  0.60810171  0.73303505  0.07667167    -0.87500
O646        O  0.68958620  0.77428979  0.10332943    -0.74800
C647        C  0.54456937  0.79744202  0.36524657     0.93300
O648        O  0.59905224  0.89659155  0.07553776    -0.74700
O649        O  0.56774114  0.82931946  0.37225351    -0.82200
Mg650      Mg  0.64243138  0.86555139  0.12964977     1.58000
C651        C  0.54985900  0.66027166  0.98227743     0.93200
O652        O  0.69136077  0.83717159  0.18002794    -0.80400
H653        H  0.65917112  0.69581954  0.06769436    -0.05800
C654        C  0.52886529  0.80542615  0.99888511     0.88200
O655        O  0.69448068  0.80992309  0.46961225    -0.74900
O656        O  0.60073054  0.81410056  0.13071969    -0.87700
O657        O  0.54782585  0.67557483  0.02397471    -0.80500
C658        C  0.53059490  0.71298214  0.16640484     0.93300
C659        C  0.69586955  0.80766272  0.20736082     0.93200
Mg660      Mg  0.59155032  0.74275291  0.44960544     1.58000
O661        O  0.54638019  0.76711101  0.39203737    -0.80400
O662        O  0.63462034  0.71522287  0.00669500    -0.74700
O663        O  0.56477323  0.73179547  0.18152991    -0.80500
O664        O  0.68442376  0.92099453  0.13099764    -0.82200
O665        O  0.66127674  0.87090798  0.40171918    -0.80500
C666        C  0.63446937  0.71369522  0.05126187     0.87600
O667        O  0.62874665  0.79546678  0.45088608    -0.87700
O668        O  0.55605731  0.77678810  0.00491701    -0.87800
O669        O  0.53789667  0.83700748  0.47668147    -0.74800
Mg670      Mg  0.62993928  0.75544916  0.14298472     1.58000
O671        O  0.52480696  0.70491134  0.12334841    -0.82200
H672        H  0.72871137  0.80312939  0.06014608    -0.05900
O673        O  0.62363790  0.87713491  0.50509876    -0.87500
H674        H  0.57498471  0.91722780  0.01483020    -0.05800
H675        H  0.67807410  0.76146012  0.42601701    -0.05900
C676        C  0.59877087  0.89802639  0.03090926     0.87600
C677        C  0.69934597  0.80446241  0.07881158     0.88200
C678        C  0.66731833  0.78803947  0.44732399     0.88200
H679        H  0.49772930  0.80410456  0.01495694    -0.05900
O680        O  0.53526781  0.79920338  0.10926064    -0.75000
Mg681      Mg  0.59934276  0.85373969  0.43992870     1.58000
H682        H  0.55044573  0.84853165  0.15240804    -0.05900
C683        C  0.69541399  0.94342710  0.09821685     0.93200
O684        O  0.71162128  0.89951101  0.44782222    -0.82200
C685        C  0.69798356  0.88750779  0.40743250     0.93300
O686        O  0.66689103  0.78004513  0.21005677    -0.82200
Mg687      Mg  0.54278167  0.73904691  0.06392722     1.58200
O688        O  0.68931233  0.93262797  0.05534498    -0.80500
O689        O  0.55596922  0.68296569  0.44810739    -0.82200
N690        N  0.99227512  0.76098693  0.31184253    -0.02900
C691        C  0.99574767  0.75215996  0.26523895    -0.00300
C692        C  0.51668101  0.78415374  0.24510645    -0.23200
C693        C  0.53197499  0.80958495  0.28106518    -0.23400
C694        C  0.51841646  0.79330620  0.32199992    -0.00400
H695        H  0.52225272  0.78821323  0.20857415     0.13400
H696        H  0.55461351  0.83419548  0.27761241     0.13400
N697        N  0.73623811  0.80357157  0.23199961    -0.02900
C698        C  0.74093787  0.80755801  0.27906006    -0.00300
C699        C  0.76595204  0.77542803  0.29436426    -0.23200
C700        C  0.78317234  0.75578749  0.25506350    -0.23400
C701        C  0.76611064  0.77532812  0.21734344    -0.00400
H702        H  0.77416064  0.76895513  0.32995557     0.13400
H703        H  0.80913473  0.73341184  0.25454904     0.13400
N704        N  0.49745771  0.69869462  0.19694736    -0.02900
C705        C  0.96878150  0.66881876  0.18314094    -0.00300
C706        C  0.95045469  0.65446293  0.22302683    -0.23200
C707        C  0.96097148  0.68152649  0.25960251    -0.23400
C708        C  0.48780127  0.71054406  0.24199609    -0.00400
H709        H  0.92375911  0.63358801  0.22373059     0.13400
H710        H  0.94535899  0.68214477  0.29304062     0.13400
O711        O  0.92866513  0.34226306  0.07420291    -0.87800
C712        C  0.81473773  0.31816637  0.11771875     0.88200
Mg713      Mg  0.94364184  0.36896485  0.50893871     1.58100
O714        O  0.87785417  0.23147083  0.08109219    -0.87500
O715        O  0.95237033  0.29175807  0.11544356    -0.74800
C716        C  0.81883780  0.26208257  0.35919980     0.93300
O717        O  0.84518982  0.38872128  0.05500368    -0.74700
O718        O  0.84296910  0.29357522  0.35841515    -0.82200
Mg719      Mg  0.88614139  0.37239622  0.12013835     1.58000
C720        C  0.82647404  0.14210472  0.99124606     0.93200
O721        O  0.93337549  0.35711484  0.18291548    -0.80400
H722        H  0.93290023  0.19966242  0.08431104    -0.05800
C723        C  0.79841657  0.26916775  0.47711961     0.88200
O724        O  0.96130612  0.30529693  0.47632188    -0.74900
O725        O  0.85376470  0.31631336  0.12392826    -0.87700
O726        O  0.82330026  0.15863146  0.03264132    -0.80500
C727        C  0.79702977  0.21810501  0.17483772     0.93300
C728        C  0.93783793  0.32934503  0.21290481     0.93200
Mg729      Mg  0.87153191  0.22152279  0.45242929     1.58000
O730        O  0.82470300  0.23465127  0.38925263    -0.80400
O731        O  0.91220775  0.20658327  0.01772212    -0.74700
O732        O  0.82957308  0.24068090  0.18416074    -0.80500
O733        O  0.91922500  0.43159700  0.11633863    -0.82200
O734        O  0.92590708  0.35234546  0.38720051    -0.80500
C735        C  0.90820352  0.21186055  0.06218714     0.87600
O736        O  0.90240557  0.27822702  0.44808919    -0.87700
O737        O  0.82814450  0.25199281  0.99693699    -0.87800
O738        O  0.80341646  0.30240256  0.45599292    -0.74800
Mg739      Mg  0.89078721  0.26505812  0.14637115     1.58000
O740        O  0.79041118  0.20347716  0.13319245    -0.82200
H741        H  0.98937083  0.33746544  0.09133621    -0.05900
O742        O  0.87786499  0.36317630  0.49080028    -0.87500
H743        H  0.82332947  0.39597823  0.48879130    -0.05800
H744        H  0.95932751  0.25041628  0.43924492    -0.05900
C745        C  0.84815162  0.38321685  0.01039387     0.87600
C746        C  0.95824189  0.32416918  0.09295755     0.88200
C747        C  0.94158320  0.27705255  0.45320169     0.88200
H748        H  0.76826562  0.25397662  0.97617654    -0.05900
O749        O  0.79499781  0.29031036  0.09400425    -0.75000
Mg750      Mg  0.86470901  0.32890955  0.42533425     1.58000
H751        H  0.79721850  0.34514595  0.13112484    -0.05900
C752        C  0.93263950  0.45141425  0.08247423     0.93200
O753        O  0.96344075  0.39222290  0.43718541    -0.82200
C754        C  0.95795083  0.37561613  0.39610823     0.93300
O755        O  0.91200442  0.29923067  0.21366860    -0.82200
Mg756      Mg  0.81211627  0.22617143  0.06219549     1.58200
O757        O  0.93247965  0.43630153  0.04023634    -0.80500
O758        O  0.84033747  0.16144879  0.45724413    -0.82200
N759        N  0.78168616  0.26010015  0.32893301    -0.02900
C760        C  0.78675982  0.25427886  0.28173403    -0.00300
C761        C  0.76868552  0.28801462  0.26036857    -0.23200
C762        C  0.74494229  0.30981232  0.29368670    -0.23400
C763        C  0.75118253  0.29034519  0.33488914    -0.00400
H764        H  0.76374915  0.29072675  0.22317033     0.13400
H765        H  0.72054817  0.33265696  0.28671789     0.13400
O766        O  0.68999085  0.26205674  0.00879371    -0.87800
C767        C  0.58337206  0.27938112  0.43462217     0.88200
Mg768      Mg  0.69854825  0.22314736  0.06644511     1.58100
O769        O  0.62119308  0.36524841  0.50247243    -0.87500
O770        O  0.70445827  0.32468275  0.48644539    -0.74800
C771        C  0.53696632  0.29378400  0.20071483     0.93300
O772        O  0.61373473  0.20252479  0.99572783    -0.74700
O773        O  0.56250317  0.26242856  0.19792743    -0.82200
Mg774      Mg  0.66213910  0.23303956  0.44743342     1.58000
C775        C  0.55039228  0.43322987  0.09027288     0.93200
O776        O  0.71388021  0.26045941  0.39788434    -0.80400
H777        H  0.66981981  0.40247918  0.51984053    -0.05800
C778        C  0.54098410  0.28584864  0.06144511     0.88200
O779        O  0.69991215  0.28124848  0.11598975    -0.74900
O780        O  0.62135429  0.28591370  0.44393546    -0.87700
O781        O  0.55280096  0.41877010  0.04837760    -0.80500
C782        C  0.55731410  0.38897025  0.40245367     0.93300
C783        C  0.71759750  0.29141001  0.37214521     0.93200
Mg784      Mg  0.59286616  0.34973676  0.12509520     1.58000
O785        O  0.54127844  0.32398044  0.17424323    -0.80400
O786        O  0.64070044  0.37975671  0.07610203    -0.74700
O787        O  0.59237197  0.36875102  0.39365136    -0.80500
O788        O  0.70109005  0.17288171  0.44866967    -0.82200
O789        O  0.66318142  0.21679225  0.17845631    -0.80500
C790        C  0.64433854  0.38368191  0.03205292     0.87600
O791        O  0.63246344  0.29660332  0.12760003    -0.87700
O792        O  0.56508501  0.31714255  0.06231253    -0.87800
O793        O  0.54708795  0.25578877  0.08750341    -0.74800
Mg794      Mg  0.65072915  0.34457731  0.43935647     1.58000
O795        O  0.54470139  0.39726485  0.44377661    -0.82200
H796        H  0.73738892  0.29602831  0.03608169    -0.05900
O797        O  0.63207761  0.21679788  0.06968868    -0.87500
H798        H  0.58329187  0.18001608  0.05138526    -0.05800
H799        H  0.67934082  0.32864659  0.15958976    -0.05900
C800        C  0.60911920  0.19873231  0.03970499     0.87600
C801        C  0.71110022  0.29414474  0.51170137     0.88200
C802        C  0.67064497  0.30309823  0.13585308     0.88200
H803        H  0.51398081  0.28469043  0.03769164    -0.05900
O804        O  0.55372387  0.30117806  0.45380738    -0.75000
Mg805      Mg  0.60294083  0.23816169  0.13356928     1.58000
H806        H  0.57517576  0.25397229  0.41045632    -0.05900
C807        C  0.70614267  0.14876879  0.98213804     0.93200
O808        O  0.70955022  0.18595737  0.12841772    -0.82200
C809        C  0.69846213  0.19692347  0.16967574     0.93300
O810        O  0.69138625  0.32209258  0.37551294    -0.82200
Mg811      Mg  0.55473677  0.35853218  0.50427276     1.58200
O812        O  0.70033737  0.16142432  0.02425941    -0.80500
O813        O  0.55550971  0.41022212  0.12454817    -0.82200
N814        N  0.98795719  0.38424907  0.35894160    -0.02900
C815        C  0.98161898  0.37786940  0.31190238    -0.00300
C816        C  0.51321446  0.39870752  0.28876917    -0.23200
C817        C  0.54334297  0.41080368  0.32149116    -0.23400
C818        C  0.52812897  0.39991284  0.36411592    -0.00400
H819        H  0.51935863  0.39660910  0.25148893     0.13400
H820        H  0.57545648  0.42047008  0.31398147     0.13400
N821        N  0.76807866  0.20762974  0.21225773    -0.02900
C822        C  0.77545674  0.21315610  0.25919864    -0.00300
C823        C  0.74579410  0.19023387  0.28268396    -0.23200
C824        C  0.71578158  0.17673587  0.25052604    -0.23400
C825        C  0.72915782  0.18906428  0.20775683    -0.00400
H826        H  0.74070870  0.19109297  0.32014375     0.13400
H827        H  0.68479328  0.16452532  0.25856163     0.13400
N828        N  0.97488881  0.32928426  0.24335933    -0.02900
C829        C  0.96994464  0.33645123  0.29041982    -0.00300
C830        C  0.48705043  0.30289025  0.31294812    -0.23200
C831        C  0.50943645  0.27904083  0.28019451    -0.23400
C832        C  0.50362890  0.29727567  0.23819313    -0.00400
H833        H  0.49215503  0.30117135  0.35025290     0.13400
H834        H  0.53288698  0.25548912  0.28781204     0.13400
C835        C  0.75997441  0.01916371  0.05163285     0.03700
C836        C  0.72544474  0.01090200  0.08127852    -0.12500
C837        C  0.72705833  0.97551296  0.10794557     0.01200
C838        C  0.76659756  0.95613499  0.11356329    -0.11000
C839        C  0.79221283  0.95377581  0.07377979     0.03700
C840        C  0.79197734  0.98811669  0.04550368    -0.10400
H841        H  0.69601781  0.02859994  0.08014272     0.09300
H842        H  0.76808892  0.93049883  0.13654530     0.06800
H843        H  0.81367901  0.98866963  0.01613841     0.06700
C844        C  0.76092950  0.05580541  0.02198350     0.03700
C845        C  0.80069417  0.07334763  0.01223891    -0.12500
C846        C  0.80289970  0.10426093  0.97994788     0.01200
C847        C  0.76715418  0.11136662  0.45198415    -0.11000
C848        C  0.72803001  0.10829097  0.97409740     0.03700
C849        C  0.72381279  0.07681830  0.00636945    -0.10400
H850        H  0.82880679  0.06557310  0.03233842     0.09300
H851        H  0.76980035  0.13439936  0.42589533     0.06800
H852        H  0.69276142  0.07118130  0.02094732     0.06700
C853        C  0.01071179  0.55432901  0.50624188     0.03700
C854        C  0.98163354  0.55186495  0.46842257    -0.12500
C855        C  0.97824186  0.58540850  0.93986844     0.01200
C856        C  0.51621482  0.60596779  0.93234194    -0.11000
C857        C  0.53962337  0.61615096  0.97308571     0.03700
C858        C  0.53871769  0.58830127  0.50970496    -0.10400
H859        H  0.95624416  0.52950228  0.46729173     0.09300
H860        H  0.51619567  0.62746321  0.90447950     0.06800
H861        H  0.55621632  0.59499571  0.54188465     0.06700
C862        C  0.00540398  0.52690735  0.54563532     0.03700
C863        C  0.54031705  0.50438394  0.56301423    -0.12500
C864        C  0.53333782  0.47565195  0.59763691     0.01200
C865        C  0.99448612  0.47769841  0.62115971    -0.11000
C866        C  0.95900942  0.48760013  0.59400857     0.03700
C867        C  0.96401389  0.51690244  0.56038787    -0.10400
H868        H  0.57075037  0.50467557  0.54513185     0.09300
H869        H  0.98994877  0.45598647  0.64835020     0.06800
H870        H  0.93592005  0.52778271  0.54237040     0.06700
O871        O  0.80858966  0.80655389  0.49725760    -0.87800
C872        C  0.92302423  0.81524712  0.94232958     0.88200
Mg873      Mg  0.79704741  0.80923933  0.57000482     1.58100
O874        O  0.87706229  0.71804416  0.92401774    -0.87500
O875        O  0.79565332  0.76782698  0.93273493    -0.74800
C876        C  0.93712722  0.67787692  0.64598164     0.93300
O877        O  0.89089122  0.85253930  0.53708778    -0.74700
O878        O  0.90725874  0.70253444  0.65896302    -0.82200
Mg879      Mg  0.84606784  0.85507928  0.97304475     1.58000
C880        C  0.94572131  0.61667116  0.45458689     0.93200
O881        O  0.79537383  0.85834352  0.91466781    -0.80400
H882        H  0.82709150  0.68312112  0.90464944    -0.05800
C883        C  0.95377560  0.73348724  0.53611955     0.88200
O884        O  0.78774087  0.73848157  0.56531602    -0.74900
O885        O  0.88415838  0.80963308  0.93849371    -0.87700
O886        O  0.93762094  0.64522634  0.92704507    -0.80500
C887        C  0.95763924  0.74969242  0.84159517     0.93300
C888        C  0.78975312  0.84651611  0.87207991     0.93200
Mg889      Mg  0.89282684  0.66681357  0.53612308     1.58000
O890        O  0.93984470  0.66348737  0.60339671    -0.80400
O891        O  0.85114026  0.66986926  0.46845037    -0.74700
O892        O  0.92259283  0.77151466  0.84400205    -0.80500
O893        O  0.81214085  0.90761098  0.01055701    -0.82200
O894        O  0.82302119  0.75585943  0.66576579    -0.80500
C895        C  0.85115747  0.69010789  0.93098128     0.87600
O896        O  0.85198760  0.71176409  0.57027005    -0.87700
O897        O  0.92646018  0.71597664  0.51184717    -0.87800
O898        O  0.94529889  0.75052024  0.57604215    -0.74800
Mg899      Mg  0.85544871  0.77022533  0.88719329     1.58000
O900        O  0.96390494  0.71922249  0.86692108    -0.82200
H901        H  0.75621881  0.77264902  0.98836658    -0.05900
O902        O  0.86366865  0.80450908  0.57974179    -0.87500
H903        H  0.91451294  0.83763809  0.60037680    -0.05800
H904        H  0.79982201  0.67678190  0.56522613    -0.05900
C905        C  0.89025956  0.83190886  0.57391639     0.87600
C906        C  0.78546259  0.78272074  0.97334620     0.88200
C907        C  0.81287784  0.70753055  0.56721276     0.88200
H908        H  0.98504092  0.73490200  0.52158007    -0.05900
O909        O  0.94920521  0.78539727  0.94598302    -0.75000
Mg910      Mg  0.88303535  0.75379191  0.61841096     1.58000
H911        H  0.93488228  0.84645297  0.94424439    -0.05900
C912        C  0.80405695  0.91203079  0.55378299     0.93200
O913        O  0.78019682  0.80734029  0.64638956    -0.82200
C914        C  0.79036610  0.77902763  0.67356259     0.93300
O915        O  0.81906030  0.82484169  0.85048707    -0.82200
Mg916      Mg  0.94237488  0.71527306  0.94011261     1.58200
O917        O  0.80162442  0.88083032  0.57912275    -0.80500
O918        O  0.93483303  0.61979732  0.49750529    -0.82200
N919        N  0.75022918  0.85938720  0.84888243    -0.02900
C920        C  0.72432357  0.89143386  0.86485248    -0.00300
C921        C  0.70168716  0.90610834  0.82738035    -0.23200
C922        C  0.70748484  0.87827464  0.79036410    -0.25000
C923        C  0.73529384  0.84823540  0.80519457    -0.00400
H924        H  0.67597511  0.92877575  0.82953741     0.13400
H925        H  0.68918052  0.87805908  0.75836393     0.13400
O926        O  0.67553190  0.83465957  0.57395736    -0.87800
C927        C  0.56194148  0.82162120  0.63215210     0.88200
Mg928      Mg  0.69068483  0.86952001  0.01476244     1.58100
O929        O  0.60811892  0.73303666  0.57667668    -0.87500
O930        O  0.68962672  0.77427082  0.60334083    -0.74800
C931        C  0.54467679  0.79744665  0.86523469     0.93300
O932        O  0.59904541  0.89655659  0.57556571    -0.74700
O933        O  0.56785080  0.82932293  0.87223570    -0.82200
Mg934      Mg  0.64245141  0.86553418  0.62966380     1.58000
C935        C  0.54981424  0.66027138  0.48229137     0.93200
O936        O  0.69139813  0.83718381  0.68004789    -0.80400
H937        H  0.65918062  0.69581846  0.56764501    -0.05800
C938        C  0.52880264  0.80541135  0.49892183     0.88200
O939        O  0.69455820  0.80998598  0.96962686    -0.74900
O940        O  0.60076309  0.81408328  0.63076164    -0.87700
O941        O  0.54783455  0.67555798  0.52399932    -0.80500
C942        C  0.53065114  0.71296727  0.66644269     0.93300
C943        C  0.69592669  0.80767816  0.70738215     0.93200
Mg944      Mg  0.59164400  0.74276031  0.94960524     1.58000
O945        O  0.54649311  0.76711397  0.89202251    -0.80400
O946        O  0.63456230  0.71520890  0.50667001    -0.74700
O947        O  0.56482525  0.73179014  0.68156331    -0.80500
O948        O  0.68443349  0.92097624  0.63097587    -0.82200
O949        O  0.66137215  0.87094178  0.90172545    -0.80500
C950        C  0.63446257  0.71369365  0.55123924     0.87600
O951        O  0.62883234  0.79549186  0.95090864    -0.87700
O952        O  0.55601055  0.77678635  0.50494818    -0.87800
O953        O  0.53797644  0.83702080  0.97664992    -0.74800
Mg954      Mg  0.62998512  0.75543475  0.64300075     1.58000
O955        O  0.52487180  0.70487472  0.62338953    -0.82200
H956        H  0.72873286  0.80313583  0.56016084    -0.05900
O957        O  0.62368568  0.87717838  0.00508502    -0.87500
H958        H  0.57493739  0.91718021  0.51487133    -0.05800
H959        H  0.67817677  0.76150575  0.92604472    -0.05900
C960        C  0.59873634  0.89798397  0.53093712     0.87600
C961        C  0.69936671  0.80444747  0.57882140     0.88200
C962        C  0.66740727  0.78808180  0.94734776     0.88200
H963        H  0.49766916  0.80407659  0.51499749    -0.05900
O964        O  0.53529552  0.79918289  0.60931585    -0.75000
Mg965      Mg  0.59942615  0.85375917  0.93991484     1.58000
H966        H  0.55047976  0.84850836  0.65246430    -0.05900
C967        C  0.69542282  0.94339349  0.59818223     0.93200
O968        O  0.71168613  0.89957753  0.94784602    -0.82200
C969        C  0.69806880  0.88756051  0.90745039     0.93300
O970        O  0.66696976  0.78003589  0.71006776    -0.82200
Mg971      Mg  0.54279132  0.73903085  0.56396757     1.58200
O972        O  0.68932559  0.93257588  0.55531431    -0.80500
O973        O  0.55608055  0.68294866  0.94809115    -0.82200
N974        N  0.99234890  0.76100835  0.81186061    -0.02900
C975        C  0.99579957  0.75217796  0.76525702    -0.00300
C976        C  0.51673339  0.78416348  0.74511072    -0.23200
C977        C  0.53205295  0.80959081  0.78105911    -0.23400
C978        C  0.51850656  0.79331785  0.82200176    -0.00400
H979        H  0.52229091  0.78821528  0.70857486     0.13400
H980        H  0.55469944  0.83419250  0.77759262     0.13400
N981        N  0.73630133  0.80361225  0.73202037    -0.02900
C982        C  0.74100735  0.80761186  0.77908188    -0.00300
C983        C  0.76601708  0.77548184  0.79439387    -0.23200
C984        C  0.78323287  0.75582970  0.75509796    -0.23400
C985        C  0.76617337  0.77536419  0.71737283    -0.00400
H986        H  0.77422911  0.76901826  0.82998691     0.13400
H987        H  0.80919151  0.73345016  0.75458886     0.13400
N988        N  0.49750830  0.69869288  0.69698588    -0.02900
C989        C  0.96882660  0.66882067  0.68318268    -0.00300
C990        C  0.95049010  0.65448007  0.72307169    -0.23200
C991        C  0.96100289  0.68155413  0.75963947    -0.23400
C992        C  0.48784411  0.71055911  0.74202759    -0.00400
H993        H  0.92378959  0.63361117  0.72377773     0.13400
H994        H  0.94538025  0.68218874  0.79307242     0.13400
O995        O  0.92860649  0.34224960  0.57420900    -0.87800
C996        C  0.81464300  0.31823738  0.61771217     0.88200
Mg997      Mg  0.94364651  0.36897586  0.00892740     1.58100
O998        O  0.87770032  0.23148634  0.58112544    -0.87500
O999        O  0.95224829  0.29173285  0.61547569    -0.74800
C1000       C  0.81881685  0.26205184  0.85920180     0.93300
O1001       O  0.84516695  0.38875756  0.55497568    -0.74700
O1002       O  0.84293798  0.29355249  0.85841728    -0.82200
Mg1003     Mg  0.88608593  0.37241734  0.62012705     1.58000
C1004       C  0.82634729  0.14215344  0.49124333     0.93200
O1005       O  0.93328784  0.35711795  0.68291189    -0.80400
H1006       H  0.93272380  0.19964720  0.58438638    -0.05800
C1007       C  0.79847092  0.26910422  0.97717661     0.88200
O1008       O  0.96132622  0.30530708  0.97631850    -0.74900
O1009       O  0.85366671  0.31635544  0.62392929    -0.87700
O1010       O  0.82309049  0.15870103  0.53262190    -0.80500
C1011       C  0.79684365  0.21815411  0.67483298     0.93300
C1012       C  0.93773111  0.32935516  0.71291067     0.93200
Mg1013     Mg  0.87159221  0.22149338  0.95239766     1.58000
O1014       O  0.82470573  0.23461723  0.88924867    -0.80400
O1015       O  0.91209171  0.20659802  0.51778168    -0.74700
O1016       O  0.82940360  0.24070603  0.68417355    -0.80500
O1017       O  0.91920983  0.43160058  0.61633353    -0.82200
O1018       O  0.92587822  0.35233175  0.88719523    -0.80500
C1019       C  0.90805146  0.21186285  0.56224292     0.87600
O1020       O  0.90244312  0.27820971  0.94805586    -0.87700
O1021       O  0.82806130  0.25205153  0.49692524    -0.87800
O1022       O  0.80343911  0.30233769  0.95603774    -0.74800
Mg1023     Mg  0.89064062  0.26507546  0.64639658     1.58000
O1024       O  0.79020608  0.20357022  0.63317293    -0.82200
H1025       H  0.98929559  0.33741365  0.59139628    -0.05900
O1026       O  0.87786920  0.36314354  0.99081594    -0.87500
H1027       H  0.82332113  0.39592814  0.98882824    -0.05800
H1028       H  0.95938187  0.25042470  0.93924229    -0.05900
C1029       C  0.84814654  0.38325734  0.51036692     0.87600
C1030       C  0.95815775  0.32413573  0.59298672     0.88200
C1031       C  0.94162082  0.27705454  0.95318875     0.88200
H1032       H  0.76821305  0.25403694  0.47605288    -0.05900
O1033       O  0.79488852  0.29039817  0.59398904    -0.75000
Mg1034     Mg  0.86470140  0.32887922  0.92534416     1.58000
H1035       H  0.79714163  0.34522851  0.63111664    -0.05900
C1036       C  0.93264245  0.45140975  0.58247177     0.93200
O1037       O  0.96339954  0.39223559  0.93716545    -0.82200
C1038       C  0.95791665  0.37561023  0.89609647     0.93300
O1039       O  0.91187483  0.29925818  0.71368976    -0.82200
Mg1040     Mg  0.81196546  0.22624777  0.56218151     1.58200
O1041       O  0.93249794  0.43629039  0.54023774    -0.80500
O1042       O  0.84041350  0.16141333  0.95723147    -0.82200
N1043       N  0.78164459  0.26007112  0.82895622    -0.02900
C1044       C  0.78668342  0.25425907  0.78174853    -0.00300
C1045       C  0.76865443  0.28803157  0.76041224    -0.23200
C1046       C  0.74494306  0.30983771  0.79374849    -0.23400
C1047       C  0.75116884  0.29034019  0.83493234    -0.00400
H1048       H  0.76370557  0.29076656  0.72321956     0.13400
H1049       H  0.72057072  0.33270985  0.78680106     0.13400
O1050       O  0.68989892  0.26200356  0.50874662    -0.87800
C1051       C  0.58340674  0.27935921  0.93471560     0.88200
Mg1052     Mg  0.69840767  0.22307414  0.56639383     1.58100
O1053       O  0.62120448  0.36527984  0.00248979    -0.87500
O1054       O  0.70448870  0.32474051  0.98646078    -0.74800
C1055       C  0.53684442  0.29375990  0.70066779     0.93300
O1056       O  0.61363709  0.20252421  0.49562035    -0.74700
O1057       O  0.56235734  0.26238775  0.69785660    -0.82200
Mg1058     Mg  0.66219093  0.23305607  0.94751257     1.58000
C1059       C  0.55037873  0.43321894  0.59025873     0.93200
O1060       O  0.71389275  0.26047182  0.89794474    -0.80400
H1061       H  0.66981476  0.40254243  0.01982223    -0.05800
C1062       C  0.54088713  0.28585520  0.56137379     0.88200
O1063       O  0.69979364  0.28116957  0.61594315    -0.74900
O1064       O  0.62138425  0.28591490  0.94402921    -0.87700
O1065       O  0.55279156  0.41876335  0.54836216    -0.80500
C1066       C  0.55728447  0.38892364  0.90247027     0.93300
C1067       C  0.71758951  0.29141014  0.87218786     0.93200
Mg1068     Mg  0.59279080  0.34970081  0.62506725     1.58000
O1069       O  0.54117548  0.32396455  0.67421033    -0.80400
O1070       O  0.64066081  0.37970264  0.57609787    -0.74700
O1071       O  0.59235262  0.36871808  0.89367999    -0.80500
O1072       O  0.70114696  0.17290083  0.94871391    -0.82200
O1073       O  0.66301162  0.21675848  0.67839004    -0.80500
C1074       C  0.64432491  0.38363158  0.53205224     0.87600
O1075       O  0.63234986  0.29655060  0.62755730    -0.87700
O1076       O  0.56501252  0.31713128  0.56226038    -0.87800
O1077       O  0.54695688  0.25578505  0.58742487    -0.74800
Mg1078     Mg  0.65072917  0.34458555  0.93938289     1.58000
O1079       O  0.54465946  0.39721519  0.94379067    -0.82200
H1080       H  0.73730705  0.29593058  0.53607476    -0.05900
O1081       O  0.63193173  0.21677071  0.56960448    -0.87500
H1082       H  0.58312572  0.18003271  0.55124382    -0.05800
H1083       H  0.67924205  0.32856838  0.65955349    -0.05900
C1084       C  0.60897913  0.19873139  0.53959348     0.87600
C1085       C  0.71117116  0.29421340  0.01172161     0.88200
C1086       C  0.67053494  0.30302707  0.63581169     0.88200
H1087       H  0.51388715  0.28472510  0.53761566    -0.05900
O1088       O  0.55374728  0.30115083  0.95388444    -0.75000
Mg1089     Mg  0.60279116  0.23812588  0.63349337     1.58000
H1090       H  0.57522534  0.25393559  0.91056462    -0.05900
C1091       C  0.70603250  0.14872423  0.48207988     0.93200
O1092       O  0.70937865  0.18588048  0.62838462    -0.82200
C1093       C  0.69829376  0.19688812  0.66963380     0.93300
O1094       O  0.69136549  0.32208226  0.87554069    -0.82200
Mg1095     Mg  0.55475182  0.35852241  0.00431628     1.58200
O1096       O  0.70014856  0.16134627  0.52419951    -0.80500
O1097       O  0.55547905  0.41020560  0.62453094    -0.82200
N1098       N  0.98793171  0.38422498  0.85893400    -0.02900
C1099       C  0.98159825  0.37784294  0.81189407    -0.00300
C1100       C  0.51321983  0.39864740  0.78876295    -0.23200
C1101       C  0.54334777  0.41073196  0.82149050    -0.23400
C1102       C  0.52811372  0.39986429  0.86411584    -0.00400
H1103       H  0.51937209  0.39653548  0.75148461     0.13400
H1104       H  0.57547056  0.42037528  0.81398692     0.13400
N1105       N  0.76789631  0.20765344  0.71224859    -0.02900
C1106       C  0.77526898  0.21317207  0.75919456    -0.00300
C1107       C  0.74558117  0.19027919  0.78267867    -0.23200
C1108       C  0.71558622  0.17676412  0.75050998    -0.23400
C1109       C  0.72898129  0.18907219  0.70773810    -0.00400
H1110       H  0.74048482  0.19114972  0.82013695     0.13400
H1111       H  0.68459595  0.16455146  0.75853462     0.13400
N1112       N  0.97479296  0.32927593  0.74334724    -0.02900
C1113       C  0.96987171  0.33643922  0.79041101    -0.00300
C1114       C  0.48696239  0.30286220  0.81292190    -0.23200
C1115       C  0.50932559  0.27900798  0.78015219    -0.23400
C1116       C  0.50351634  0.29725605  0.73815857    -0.00400
H1117       H  0.49207933  0.30113351  0.85022367     0.13400
H1118       H  0.53276622  0.25544258  0.78775394     0.13400
C1119       C  0.75994711  0.01914237  0.55157281     0.03700
C1120       C  0.72542746  0.01087290  0.58122715    -0.12500
C1121       C  0.72705893  0.97548817  0.60789803     0.01200
C1122       C  0.76660548  0.95612338  0.61351119    -0.11000
C1123       C  0.79221253  0.95376462  0.57372177     0.03700
C1124       C  0.79195925  0.98810304  0.54543795    -0.10400
H1125       H  0.69599532  0.02856328  0.58009870     0.09300
H1126       H  0.76810880  0.93049134  0.63649827     0.06800
H1127       H  0.81365424  0.98866071  0.51606739     0.06700
C1128       C  0.76088109  0.05578837  0.52192890     0.03700
C1129       C  0.80063327  0.07336370  0.51220405    -0.12500
C1130       C  0.80282009  0.10428651  0.47992280     0.01200
C1131       C  0.76722906  0.11136909  0.95202462    -0.11000
C1132       C  0.72795201  0.10826039  0.47404393     0.03700
C1133       C  0.72375138  0.07677894  0.50630917    -0.10400
H1134       H  0.82874670  0.06560681  0.53231168     0.09300
H1135       H  0.76988224  0.13439859  0.92593294     0.06800
H1136       H  0.69270162  0.07111698  0.52087652     0.06700
loop_ 
_geom_bond_atom_site_label_1 
_geom_bond_atom_site_label_2 
_geom_bond_distance 
_geom_bond_site_symmetry_2 
_ccdc_geom_bond_type 
C1            C2   1.411   1_554  A
C1          C574   1.416       .  A
C1           C10   1.482       .  S
C2          C287   1.396       .  A
C2            H7   1.082       .  S
C3          C286   1.396       .  A
C3          C572   1.393       .  A
C3          C312   1.475       .  S
C4            C5   1.402       .  A
C4          C571   1.393   1_455  A
C4            H8   1.085       .  S
C5          C290   1.418       .  A
C5          C367   1.480       .  S
C6          C569   1.416       .  A
C6          C289   1.418   1_554  A
C6            H9   1.083       .  S
C10          C15   1.411       .  A
C10         C579   1.410       .  A
C11          C12   1.413       .  A
C11         C578   1.410       .  A
C11          H16   1.084       .  S
C12         C581   1.392   1_455  A
C12         C207   1.475       .  S
C13          C14   1.397       .  A
C13         C580   1.392       .  A
C13          H17   1.086       .  S
C14          C15   1.397       .  A
C14         C184   1.467       .  S
C15          H18   1.082       .  S
O19         Mg21   2.111   1_556  S
O19        Mg311   2.120       .  S
O19         C338   1.245       .  S
C20          H59   1.081       .  S
C20          O33   1.236       .  S
C20          O57   1.269       .  A
Mg21         O50   2.108       .  S
Mg21         O65   2.329       .  S
Mg21         O61   2.254       .  S
Mg21         O32   2.314       .  S
O22         Mg64   2.096       .  S
O22         Mg47   2.140       .  S
O22          C43   1.248       .  S
O23          C54   1.276       .  A
O23         Mg47   2.289       .  S
C24         C137   1.490       .  S
C24          O26   1.267       .  A
C24          O38   1.285       .  A
O25          C53   1.277       .  A
O25        Mg311   2.310   1_554  S
O26         Mg58   2.200       .  S
Mg27         O33   2.095       .  S
Mg27        O303   2.120       .  S
Mg27         O41   2.227       .  S
Mg27         O29   2.305       .  S
Mg27        O309   2.310       .  S
C28         C287   1.475       .  S
C28          O66   1.274       .  A
C28         O318   1.268       .  A
O29          C36   1.271       .  A
H30          C43   1.081       .  S
C31          H56   1.068       .  S
C31          O45   1.226       .  S
C31          O46   1.271       .  A
O32          C55   1.271       .  A
O33         Mg47   2.103       .  S
O34         C312   1.268       .  A
O34         Mg64   2.290       .  S
C35          O48   1.268       .  A
C35          O40   1.298       .  A
C35         N122   1.445       .  S
C36          O63   1.289       .  A
C36          N67   1.468       .  S
Mg37         O44   2.129       .  S
Mg37         O45   2.072       .  S
Mg37         O38   2.424       .  S
Mg37         O39   2.336   1_554  S
Mg37         O66   2.251   1_554  S
O39         C327   1.283       .  A
O40         Mg47   2.444       .  S
O41         C344   1.265       .  A
O42          C62   1.275       .  A
O42         Mg58   2.319       .  S
C43         O323   1.283       .  A
O44         Mg58   2.129       .  S
O44          C55   1.236       .  S
O45        Mg348   2.112   1_554  S
O46         Mg58   2.298       .  S
Mg47         O63   2.381       .  S
O48         Mg64   2.213       .  S
H49          C54   1.075       .  S
O50         Mg58   2.110       .  S
O50          C53   1.243       .  S
H51          C53   1.081       .  S
H52          C55   1.081       .  S
C54         O303   1.245       .  S
O57         Mg64   2.285       .  S
C60         C271   1.485       .  S
C60          O65   1.277       .  A
C60         O325   1.265       .  A
O61          C62   1.270       .  A
C62         C133   1.478       .  S
Mg64        O329   2.113       .  S
N67          C71   1.366       .  A
N67          C68   1.371       .  A
C68          C69   1.384       .  A
C68         C117   1.484       .  S
C69          C70   1.367       .  A
C69          H72   1.083       .  S
C70          C71   1.380       .  A
C70          H73   1.078       .  S
C71         C130   1.490       .  S
O74         Mg82   2.107       .  S
O74        Mg360   2.141       .  S
O74         C109   1.237       .  S
C75         H114   1.081       .  S
C75          O88   1.237       .  S
C75         O112   1.271       .  A
Mg76        O105   2.128       .  S
Mg76        O358   2.140       .  S
Mg76        O116   2.294       .  S
Mg76         O87   2.270       .  S
Mg76        O404   2.301       .  S
O77        Mg119   2.085       .  S
O77        Mg102   2.111       .  S
O77          C98   1.244       .  S
O78         C109   1.273       .  A
O78        Mg102   2.294       .  S
C79         C126   1.482       .  S
C79          O81   1.278       .  A
C79          O93   1.278       .  A
O80         C108   1.280       .  A
O80         Mg82   2.316       .  S
O81        Mg113   2.281       .  S
Mg82         O88   2.133       .  S
Mg82         O96   2.239       .  S
Mg82         O84   2.314       .  S
C83         C289   1.481       .  S
C83          O89   1.270   1_556  A
C83         O405   1.270       .  A
O84          C91   1.272       .  A
H85          C98   1.081       .  S
C86         H111   1.082   1_456  S
C86         O385   1.269       .  A
C86         O100   1.270   1_556  A
O87         C110   1.264       .  A
O88        Mg102   2.145       .  S
O89        Mg119   2.307       .  S
C90         O103   1.259       .  A
C90          O95   1.300       .  A
C90         N136   1.454   1_455  S
C91         O118   1.288       .  A
C91         N129   1.453       .  S
Mg92         O99   2.079       .  S
Mg92         O93   2.329       .  S
Mg92        O121   2.247       .  S
Mg92        O378   2.319       .  S
Mg92        O384   2.184       .  S
O94          C98   1.278       .  A
O94        Mg376   2.319   1_554  S
O95        Mg102   2.472       .  S
O96         C115   1.267       .  A
O97         C117   1.282       .  A
O97        Mg113   2.317       .  S
O99        Mg113   2.129       .  S
O99         C110   1.232       .  S
O100       Mg119   2.179       .  S
O100       Mg376   2.184   1_554  S
O101        C370   1.269       .  A
O101       Mg113   2.281       .  S
Mg102       O118   2.347       .  S
O103       Mg119   2.155       .  S
H104        C109   1.064       .  S
O105       Mg113   2.119       .  S
O105        C392   1.246       .  S
H106        C108   1.081       .  S
H107        C110   1.081       .  S
C108        O389   1.246       .  S
O112       Mg119   2.297       .  S
C115        C269   1.462       .  S
C115        O120   1.273       .  A
O116        C117   1.274       .  A
O120       Mg360   2.301       .  S
O121        C367   1.270       .  A
N122        C123   1.354       .  A
N122        C694   1.357       .  A
C123        C692   1.385       .  A
C123        C708   1.497       .  S
C124        C125   1.374       .  A
C124        C691   1.385   1_455  A
C124        H127   1.075       .  S
C125        C126   1.379       .  A
C125        H128   1.083       .  S
C126        N690   1.357   1_455  A
N129        C133   1.354       .  A
N129        C130   1.354       .  A
C130        C131   1.384       .  A
C131        C132   1.373       .  A
C131        H134   1.079       .  S
C132        C133   1.381       .  A
C132        H135   1.083       .  S
N136        C140   1.360       .  A
N136        C705   1.372       .  A
C137        C138   1.383       .  A
C137        N704   1.372       .  A
C138        C139   1.373       .  A
C138        H141   1.083       .  S
C139        C708   1.384       .  A
C139        H142   1.075       .  S
C140        C707   1.384       .  A
C140        C691   1.497       .  S
O143       Mg151   2.075       .  S
O143       Mg429   2.154       .  S
O143        C178   1.227       .  S
C144        H183   1.081       .  S
C144        O157   1.235       .  S
C144        O181   1.268       .  A
Mg145       O174   2.130       .  S
Mg145       O427   2.154       .  S
Mg145       O185   2.312       .  S
Mg145       O156   2.285       .  S
Mg145       O473   2.340       .  S
O146       Mg188   2.133       .  S
O146       Mg171   2.153       .  S
O146        C167   1.247       .  S
O147        C178   1.275       .  A
O147       Mg171   2.320       .  S
C148        O150   1.279       .  A
C148        O162   1.279       .  A
C148        N191   1.448       .  S
O149        C177   1.283       .  A
O149       Mg151   2.337       .  S
O150       Mg182   2.287       .  S
Mg151       O157   2.101       .  S
Mg151       O165   2.201       .  S
Mg151       O153   2.390       .  S
C152        C278   1.462       .  S
C152        O158   1.279   1_556  A
C152        O474   1.265       .  A
O153        C160   1.281       .  A
H154        C167   1.081       .  S
C155        H464   1.071       .  S
C155        O453   1.227       .  S
C155        O170   1.274       .  A
O156        C179   1.268       .  A
O157       Mg171   2.139       .  S
O158       Mg188   2.330       .  S
C159        O172   1.277       .  A
C159        O164   1.282       .  A
C159        N253   1.461       .  S
C160        O187   1.277       .  A
C160        N260   1.448       .  S
Mg161       O168   2.098       .  S
Mg161       O453   2.075       .  S
Mg161       O162   2.375       .  S
Mg161       O190   2.201       .  S
Mg161       O447   2.324       .  S
O163        C167   1.281       .  A
O163       Mg445   2.324   1_554  S
O164       Mg171   2.368       .  S
O165        C184   1.265       .  A
O166        C186   1.280       .  A
O166       Mg182   2.361       .  S
O168       Mg182   2.138       .  S
O168        C179   1.235       .  S
O169       Mg188   2.148   1_556  S
O169       Mg445   2.075       .  S
O169        C439   1.227       .  S
O170       Mg182   2.307       .  S
Mg171       O187   2.273       .  S
O172       Mg188   2.303       .  S
H173        C178   1.073       .  S
O174       Mg182   2.170       .  S
O174        C461   1.247       .  S
H175        C461   1.081       .  S
H176        C179   1.081       .  S
C177        H459   1.081   1_554  S
C177        O458   1.247   1_554  S
H180        C439   1.071       .  S
O181       Mg188   2.286       .  S
C184        O189   1.281       .  A
O185        C186   1.280       .  A
C186        N246   1.462       .  S
O189       Mg429   2.340       .  S
O190        C436   1.265       .  A
N191        C195   1.365       .  A
N191        C192   1.364       .  A
C192        C193   1.393       .  A
C192        C254   1.497       .  S
C193        C194   1.373       .  A
C193        H196   1.083       .  S
C194        C195   1.377       .  A
C194        H197   1.082       .  S
C195        C215   1.499       .  S
O198       Mg200   2.141       .  S
O198       Mg490   2.135   1_554  S
O198        C517   1.242       .  S
C199        H238   1.081       .  S
C199        O212   1.236       .  S
C199        O236   1.269       .  A
Mg200       O229   2.097       .  S
Mg200       O244   2.285       .  S
Mg200       O240   2.218       .  S
Mg200       O211   2.300       .  S
O201       Mg243   2.096       .  S
O201       Mg226   2.107       .  S
O201        C506   1.245       .  S
O202        C233   1.270       .  A
O202       Mg226   2.259       .  S
C203        C264   1.498       .  S
C203        O205   1.285       .  A
C203        O217   1.277       .  A
O204        C232   1.279   1_556  A
O204       Mg490   2.319       .  S
O205       Mg237   2.336       .  S
Mg206       O212   2.131       .  S
Mg206       O482   2.135       .  S
Mg206       O220   2.290       .  S
Mg206       O208   2.368       .  S
Mg206       O488   2.319       .  S
C207        O245   1.270       .  A
C207        O213   1.267       .  A
O208        C215   1.281       .  A
H209        C506   1.081       .  S
C210        H235   1.083       .  S
C210        O225   1.269       .  A
C210        O224   1.271       .  A
O211        C234   1.270       .  A
O212       Mg226   2.134       .  S
O213       Mg527   2.271       .  S
C214        C250   1.479       .  S
C214        O227   1.263       .  A
C214        O219   1.291       .  A
C215        O242   1.282       .  A
Mg216       O223   2.114       .  S
Mg216       O217   2.335       .  S
Mg216       O218   2.312       .  S
Mg216       O245   2.272       .  S
Mg216       O224   2.218       .  S
O218        C222   1.279       .  A
O219       Mg226   2.390       .  S
O220        C523   1.274       .  A
O221        C241   1.291       .  A
O221       Mg237   2.393       .  S
C222        H493   1.081       .  S
C222        O485   1.245       .  S
O223       Mg237   2.134       .  S
O223        C234   1.236       .  S
O224       Mg527   2.207       .  S
O225       Mg237   2.271       .  S
Mg226       O242   2.312       .  S
O227       Mg243   2.209       .  S
H228        C517   1.075       .  S
O229       Mg237   2.126       .  S
O229        C232   1.245       .  S
H230        C232   1.081       .  S
H231        C234   1.081       .  S
C233        H512   1.075       .  S
C233        O482   1.242       .  S
O236       Mg243   2.296       .  S
C239        C280   1.481       .  S
C239        O244   1.266   1_556  A
C239        O504   1.274       .  A
O240        C241   1.264       .  A
C241        C257   1.480       .  S
Mg243       O497   2.271       .  S
Mg243       O508   2.207       .  S
N246        C247   1.365       .  A
N246        C818   1.367       .  A
C247        C816   1.393       .  A
C247        C261   1.497       .  S
C248        C249   1.373       .  A
C248        C815   1.393   1_455  A
C248        H251   1.083       .  S
C249        C250   1.375       .  A
C249        H252   1.083       .  S
C250        N814   1.367   1_455  A
N253        C257   1.369       .  A
N253        C254   1.365       .  A
C254        C255   1.393       .  A
C255        C256   1.373       .  A
C255        H258   1.083       .  S
C256        C257   1.375       .  A
C256        H259   1.082       .  S
N260        C261   1.364       .  A
N260        C832   1.368       .  A
C261        C830   1.393       .  A
C262        C263   1.373   1_655  A
C262        C829   1.393       .  A
C262        H265   1.083       .  S
C263        C264   1.376       .  A
C263        H266   1.082       .  S
C264        N828   1.368   1_455  A
C267        C268   1.413       .  A
C267        C272   1.417   1_545  A
C267        C276   1.495       .  S
C268        C269   1.410   1_545  A
C268        H273   1.081       .  S
C269        C270   1.394       .  A
C270        C271   1.393       .  A
C270        H274   1.086       .  S
C271        C272   1.409       .  A
C272        H275   1.084       .  S
C276        C277   1.410       .  A
C276        C281   1.422       .  A
C277        C278   1.400   1_554  A
C277        H282   1.084       .  S
C278        C563   1.394       .  A
C279        C562   1.394       .  A
C279        C564   1.389       .  A
C279        H283   1.087       .  S
C280        C281   1.418   1_556  A
C280        C563   1.389       .  A
C281        H284   1.081       .  S
C285        C286   1.411       .  A
C285        C858   1.416       .  A
C285        C294   1.482       .  S
C286        H291   1.082       .  S
C287        C856   1.393       .  A
C288        C855   1.393   1_455  A
C288        C289   1.402       .  A
C288        H292   1.085       .  S
C290        C853   1.416       .  A
C290        H293   1.083       .  S
C294        C863   1.410       .  A
C294        C299   1.411       .  A
C295        C862   1.410       .  A
C295        C296   1.413       .  A
C295        H300   1.084       .  S
C296        C865   1.392   1_455  A
C296        C491   1.475       .  S
C297        C864   1.392       .  A
C297        C298   1.396       .  A
C297        H301   1.086       .  S
C298        C299   1.397       .  A
C298        C468   1.467       .  S
C299        H302   1.082       .  S
O303       Mg305   2.111       .  S
C304        H343   1.081       .  S
C304        O317   1.236       .  S
C304        O341   1.269       .  A
Mg305       O334   2.108       .  S
Mg305       O349   2.329       .  S
Mg305       O345   2.254       .  S
Mg305       O316   2.314       .  S
O306       Mg348   2.096       .  S
O306       Mg331   2.140       .  S
O306        C327   1.248       .  S
O307        C338   1.276       .  A
O307       Mg331   2.289       .  S
C308        C421   1.490       .  S
C308        O310   1.267       .  A
C308        O322   1.285       .  A
O309        C337   1.277       .  A
O310       Mg342   2.200       .  S
Mg311       O317   2.095       .  S
Mg311       O325   2.227   1_556  S
Mg311       O313   2.305       .  S
C312        O350   1.274       .  A
O313        C320   1.271       .  A
H314        C327   1.081       .  S
C315        H340   1.068       .  S
C315        O329   1.226       .  S
C315        O330   1.271       .  A
O316        C339   1.271       .  A
O317       Mg331   2.103       .  S
O318       Mg348   2.290       .  S
C319        O332   1.268       .  A
C319        O324   1.298       .  A
C319        N406   1.445       .  S
C320        O347   1.289       .  A
C320        N351   1.468       .  S
Mg321       O328   2.129       .  S
Mg321       O329   2.072       .  S
Mg321       O322   2.425       .  S
Mg321       O323   2.336       .  S
Mg321       O350   2.251       .  S
O324       Mg331   2.445       .  S
O326        C346   1.275       .  A
O326       Mg342   2.319       .  S
O328       Mg342   2.129       .  S
O328        C339   1.236       .  S
O330       Mg342   2.298       .  S
Mg331       O347   2.381       .  S
O332       Mg348   2.213       .  S
H333        C338   1.074       .  S
O334       Mg342   2.110       .  S
O334        C337   1.243       .  S
H335        C337   1.081       .  S
H336        C339   1.081       .  S
O341       Mg348   2.285       .  S
C344        C555   1.485       .  S
C344        O349   1.277       .  A
O345        C346   1.270       .  A
C346        C417   1.478       .  S
N351        C355   1.366       .  A
N351        C352   1.371       .  A
C352        C353   1.384       .  A
C352        C401   1.484       .  S
C353        C354   1.367       .  A
C353        H356   1.083       .  S
C354        C355   1.380       .  A
C354        H357   1.078       .  S
C355        C414   1.490       .  S
O358       Mg366   2.107       .  S
O358        C393   1.237       .  S
C359        H398   1.081       .  S
C359        O372   1.237       .  S
C359        O396   1.271       .  A
Mg360       O389   2.128       .  S
Mg360       O400   2.294   1_554  S
Mg360       O371   2.270   1_554  S
O361       Mg403   2.085       .  S
O361       Mg386   2.112       .  S
O361        C382   1.244       .  S
O362        C393   1.273       .  A
O362       Mg386   2.294       .  S
C363        C410   1.482       .  S
C363        O365   1.277       .  A
C363        O377   1.278       .  A
O364        C392   1.280       .  A
O364       Mg366   2.316       .  S
O365       Mg397   2.281       .  S
Mg366       O372   2.133       .  S
Mg366       O380   2.239       .  S
Mg366       O368   2.314       .  S
C367        O373   1.270       .  A
O368        C375   1.272       .  A
H369        C382   1.081       .  S
C370        H395   1.082   1_455  S
C370        O384   1.270       .  A
O371        C394   1.264       .  A
O372       Mg386   2.145       .  S
O373       Mg403   2.307       .  S
C374        O387   1.259       .  A
C374        O379   1.300       .  A
C374        N420   1.454   1_455  S
C375        O402   1.288       .  A
C375        N413   1.453       .  S
Mg376       O383   2.080       .  S
Mg376       O377   2.329       .  S
Mg376       O405   2.247       .  S
O378        C382   1.279       .  A
O379       Mg386   2.472       .  S
O380        C399   1.267       .  A
O381        C401   1.282       .  A
O381       Mg397   2.318       .  S
O383       Mg397   2.129       .  S
O383        C394   1.232       .  S
O384       Mg403   2.179       .  S
O385       Mg397   2.280       .  S
Mg386       O402   2.347       .  S
O387       Mg403   2.155       .  S
H388        C393   1.064       .  S
O389       Mg397   2.119   1_554  S
H390        C392   1.081       .  S
H391        C394   1.081       .  S
O396       Mg403   2.297       .  S
C399        C553   1.462       .  S
C399        O404   1.273       .  A
O400        C401   1.274       .  A
N406        C978   1.357       .  A
N406        C407   1.354       .  A
C407        C976   1.385       .  A
C407        C992   1.497       .  S
C408        C975   1.385   1_455  A
C408        C409   1.374       .  A
C408        H411   1.075       .  S
C409        C410   1.379       .  A
C409        H412   1.083       .  S
C410        N974   1.357   1_455  A
N413        C417   1.354       .  A
N413        C414   1.354       .  A
C414        C415   1.384       .  A
C415        C416   1.373       .  A
C415        H418   1.079       .  S
C416        C417   1.381       .  A
C416        H419   1.083       .  S
N420        C424   1.360       .  A
N420        C989   1.372       .  A
C421        C422   1.383       .  A
C421        N988   1.372       .  A
C422        C423   1.373       .  A
C422        H425   1.083       .  S
C423        C992   1.384       .  A
C423        H426   1.075       .  S
C424        C991   1.384       .  A
C424        C975   1.497       .  S
O427       Mg435   2.075       .  S
O427        C462   1.227       .  S
C428        H467   1.081       .  S
C428        O441   1.235       .  S
C428        O465   1.268       .  A
Mg429       O458   2.130   1_554  S
Mg429       O469   2.312   1_554  S
Mg429       O440   2.285   1_554  S
O430       Mg472   2.133       .  S
O430       Mg455   2.153       .  S
O430        C451   1.247       .  S
O431        C462   1.275       .  A
O431       Mg455   2.320       .  S
C432        O434   1.279       .  A
C432        O446   1.279       .  A
C432        N475   1.448       .  S
O433        C461   1.283       .  A
O433       Mg435   2.337       .  S
O434       Mg466   2.287       .  S
Mg435       O441   2.101       .  S
Mg435       O449   2.201       .  S
Mg435       O437   2.389       .  S
C436        C562   1.462       .  S
C436        O442   1.279       .  A
O437        C444   1.281       .  A
H438        C451   1.081       .  S
C439        O454   1.274       .  A
O440        C463   1.268       .  A
O441       Mg455   2.139       .  S
O442       Mg472   2.330       .  S
C443        O456   1.277       .  A
C443        O448   1.282       .  A
C443        N537   1.461       .  S
C444        O471   1.277       .  A
C444        N544   1.448       .  S
Mg445       O452   2.098       .  S
Mg445       O446   2.375       .  S
Mg445       O474   2.201       .  S
O447        C451   1.281       .  A
O448       Mg455   2.368       .  S
O449        C468   1.265       .  A
O450        C470   1.280       .  A
O450       Mg466   2.361       .  S
O452       Mg466   2.138       .  S
O452        C463   1.235       .  S
O453       Mg472   2.148       .  S
O454       Mg466   2.307       .  S
Mg455       O471   2.274       .  S
O456       Mg472   2.303       .  S
H457        C462   1.073       .  S
O458       Mg466   2.170       .  S
H460        C463   1.081       .  S
O465       Mg472   2.286       .  S
C468        O473   1.281       .  A
O469        C470   1.280       .  A
C470        N530   1.461       .  S
N475        C479   1.365       .  A
N475        C476   1.364       .  A
C476        C477   1.393       .  A
C476        C538   1.498       .  S
C477        C478   1.373       .  A
C477        H480   1.083       .  S
C478        C479   1.377       .  A
C478        H481   1.082       .  S
C479        C499   1.499       .  S
O482       Mg484   2.141       .  S
C483        H522   1.081       .  S
C483        O496   1.236       .  S
C483        O520   1.269       .  A
Mg484       O513   2.097       .  S
Mg484       O528   2.285       .  S
Mg484       O524   2.218       .  S
Mg484       O495   2.300       .  S
O485       Mg527   2.096       .  S
O485       Mg510   2.107   1_554  S
O486        C517   1.270   1_556  A
O486       Mg510   2.259       .  S
C487        C548   1.498       .  S
C487        O489   1.285       .  A
C487        O501   1.277       .  A
O488        C516   1.279       .  A
O489       Mg521   2.336       .  S
Mg490       O496   2.131       .  S
Mg490       O504   2.289       .  S
Mg490       O492   2.367       .  S
C491        O529   1.270       .  A
C491        O497   1.267       .  A
O492        C499   1.281       .  A
C494        H519   1.083       .  S
C494        O509   1.269       .  A
C494        O508   1.271       .  A
O495        C518   1.270       .  A
O496       Mg510   2.134       .  S
C498        C534   1.479       .  S
C498        O511   1.263       .  A
C498        O503   1.291       .  A
C499        O526   1.282       .  A
Mg500       O507   2.114       .  S
Mg500       O501   2.336       .  S
Mg500       O502   2.312       .  S
Mg500       O529   2.272       .  S
Mg500       O508   2.218       .  S
O502        C506   1.279       .  A
O503       Mg510   2.390       .  S
O505        C525   1.291       .  A
O505       Mg521   2.393       .  S
O507       Mg521   2.134       .  S
O507        C518   1.236       .  S
O509       Mg521   2.271       .  S
Mg510       O526   2.312       .  S
O511       Mg527   2.209   1_556  S
O513       Mg521   2.126       .  S
O513        C516   1.245       .  S
H514        C516   1.081       .  S
H515        C518   1.081       .  S
O520       Mg527   2.296   1_556  S
C523        C564   1.481       .  S
C523        O528   1.266       .  A
O524        C525   1.264       .  A
C525        C541   1.480       .  S
N530       C1102   1.367       .  A
N530        C531   1.365       .  A
C531       C1100   1.393       .  A
C531        C545   1.497       .  S
C532       C1099   1.393   1_455  A
C532        C533   1.373       .  A
C532        H535   1.083       .  S
C533        C534   1.375       .  A
C533        H536   1.083       .  S
C534       N1098   1.367   1_455  A
N537        C541   1.369       .  A
N537        C538   1.365       .  A
C538        C539   1.393       .  A
C539        C540   1.373       .  A
C539        H542   1.083       .  S
C540        C541   1.375       .  A
C540        H543   1.082       .  S
N544       C1116   1.368       .  A
N544        C545   1.364       .  A
C545       C1114   1.393       .  A
C546       C1113   1.393       .  A
C546        C547   1.373   1_655  A
C546        H549   1.083       .  S
C547        C548   1.376       .  A
C547        H550   1.082       .  S
C548       N1112   1.368   1_455  A
C551        C552   1.413       .  A
C551        C556   1.417   1_545  A
C551        C560   1.495       .  S
C552        C553   1.410   1_545  A
C552        H557   1.081       .  S
C553        C554   1.394       .  A
C554        C555   1.393       .  A
C554        H558   1.086       .  S
C555        C556   1.409       .  A
C556        H559   1.084       .  S
C560        C561   1.410       .  A
C560        C565   1.422       .  A
C561        C562   1.400       .  A
C561        H566   1.084       .  S
C563        H567   1.087       .  S
C564        C565   1.418       .  A
C565        H568   1.081       .  S
C569        C570   1.411   1_454  A
C569        C578   1.482       .  S
C570        C855   1.396       .  A
C570        H575   1.082       .  S
C571        C854   1.396       .  A
C571        C880   1.475       .  S
C572        C573   1.402       .  A
C572        H576   1.085       .  S
C573        C858   1.418       .  A
C573        C935   1.480       .  S
C574        C857   1.418   1_554  A
C574        H577   1.083       .  S
C578        C583   1.411   1_455  A
C579        C580   1.413       .  A
C579        H584   1.084       .  S
C580        C775   1.475       .  S
C581        C582   1.397       .  A
C581        H585   1.086       .  S
C582        C583   1.397       .  A
C582        C752   1.467       .  S
C583        H586   1.082       .  S
O587       Mg589   2.111   1_556  S
O587       Mg879   2.120       .  S
O587        C906   1.245       .  S
C588        H627   1.081       .  S
C588        O601   1.236       .  S
C588        O625   1.269       .  A
Mg589       O618   2.108       .  S
Mg589       O633   2.329       .  S
Mg589       O629   2.254       .  S
Mg589       O600   2.314       .  S
O590       Mg632   2.096       .  S
O590       Mg615   2.140       .  S
O590        C611   1.248       .  S
O591        C622   1.276       .  A
O591       Mg615   2.289       .  S
C592        C705   1.490       .  S
C592        O594   1.267       .  A
C592        O606   1.285       .  A
O593        C621   1.277       .  A
O593       Mg879   2.310   1_554  S
O594       Mg626   2.200       .  S
Mg595       O871   2.120       .  S
Mg595       O601   2.095       .  S
Mg595       O877   2.310       .  S
Mg595       O609   2.227       .  S
Mg595       O597   2.305       .  S
C596        C855   1.475       .  S
C596        O634   1.274       .  A
C596        O886   1.268       .  A
O597        C604   1.271       .  A
H598        C611   1.081       .  S
C599        H624   1.068       .  S
C599        O613   1.226       .  S
C599        O614   1.271       .  A
O600        C623   1.271       .  A
O601       Mg615   2.103       .  S
O602        C880   1.268       .  A
O602       Mg632   2.290       .  S
C603        O616   1.268       .  A
C603        O608   1.298       .  A
C603        N690   1.445       .  S
C604        O631   1.289       .  A
C604        N635   1.468       .  S
Mg605       O612   2.129       .  S
Mg605       O613   2.072       .  S
Mg605       O606   2.424       .  S
Mg605       O607   2.336   1_554  S
Mg605       O634   2.251   1_554  S
O607        C895   1.283       .  A
O608       Mg615   2.444       .  S
O609        C912   1.265       .  A
O610        C630   1.275       .  A
O610       Mg626   2.319       .  S
C611        O891   1.283       .  A
O612       Mg626   2.129       .  S
O612        C623   1.236       .  S
O613       Mg916   2.112   1_554  S
O614       Mg626   2.298       .  S
Mg615       O631   2.381       .  S
O616       Mg632   2.213       .  S
H617        C622   1.074       .  S
O618       Mg626   2.110       .  S
O618        C621   1.243       .  S
H619        C621   1.081       .  S
H620        C623   1.081       .  S
C622        O871   1.245       .  S
O625       Mg632   2.285       .  S
C628        C839   1.485       .  S
C628        O893   1.265       .  A
C628        O633   1.277       .  A
O629        C630   1.270       .  A
C630        C701   1.478       .  S
Mg632       O897   2.113       .  S
N635        C639   1.366       .  A
N635        C636   1.371       .  A
C636        C637   1.384       .  A
C636        C685   1.484       .  S
C637        C638   1.367       .  A
C637        H640   1.083       .  S
C638        C639   1.380       .  A
C638        H641   1.078       .  S
C639        C698   1.490       .  S
O642       Mg928   2.141       .  S
O642       Mg650   2.107       .  S
O642        C677   1.237       .  S
C643        H682   1.081       .  S
C643        O656   1.237       .  S
C643        O680   1.271       .  A
Mg644       O926   2.140       .  S
Mg644       O673   2.128       .  S
Mg644       O972   2.301       .  S
Mg644       O684   2.294       .  S
Mg644       O655   2.270       .  S
O645       Mg687   2.085       .  S
O645       Mg670   2.111       .  S
O645        C666   1.244       .  S
O646        C677   1.273       .  A
O646       Mg670   2.294       .  S
C647        C694   1.482       .  S
C647        O649   1.278       .  A
C647        O661   1.278       .  A
O648        C676   1.280       .  A
O648       Mg650   2.316       .  S
O649       Mg681   2.281       .  S
Mg650       O656   2.133       .  S
Mg650       O664   2.239       .  S
Mg650       O652   2.314       .  S
C651        C857   1.481       .  S
C651        O973   1.270       .  A
C651        O657   1.270   1_556  A
O652        C659   1.272       .  A
H653        C666   1.081       .  S
C654        H679   1.082   1_556  S
C654        O953   1.269       .  A
C654        O668   1.270   1_556  A
O655        C678   1.264       .  A
O656       Mg670   2.145       .  S
O657       Mg687   2.307       .  S
C658        O671   1.259       .  A
C658        O663   1.300       .  A
C658        N704   1.454       .  S
C659        O686   1.288       .  A
C659        N697   1.453       .  S
Mg660       O667   2.079       .  S
Mg660       O661   2.329       .  S
Mg660       O946   2.319       .  S
Mg660       O689   2.247       .  S
Mg660       O952   2.184       .  S
O662        C666   1.278       .  A
O662       Mg944   2.319   1_554  S
O663       Mg670   2.472       .  S
O664        C683   1.267       .  A
O665        C685   1.282       .  A
O665       Mg681   2.317       .  S
O667       Mg681   2.129       .  S
O667        C678   1.232       .  S
O668       Mg944   2.184   1_554  S
O668       Mg687   2.179       .  S
O669        C938   1.269       .  A
O669       Mg681   2.281       .  S
Mg670       O686   2.347       .  S
O671       Mg687   2.155       .  S
H672        C677   1.064       .  S
O673       Mg681   2.119       .  S
O673        C960   1.246       .  S
H674        C676   1.081       .  S
H675        C678   1.081       .  S
C676        O957   1.246       .  S
O680       Mg687   2.297       .  S
C683        C837   1.462       .  S
C683        O688   1.273       .  A
O684        C685   1.274       .  A
O688       Mg928   2.301       .  S
O689        C935   1.270       .  A
N690        C691   1.354       .  A
C692        C693   1.374       .  A
C692        H695   1.075       .  S
C693        C694   1.379       .  A
C693        H696   1.083       .  S
N697        C701   1.354       .  A
N697        C698   1.354       .  A
C698        C699   1.384       .  A
C699        C700   1.373       .  A
C699        H702   1.079       .  S
C700        C701   1.381       .  A
C700        H703   1.083       .  S
N704        C708   1.360       .  A
C705        C706   1.383       .  A
C706        C707   1.373       .  A
C706        H709   1.083       .  S
C707        H710   1.075       .  S
O711       Mg997   2.154       .  S
O711       Mg719   2.075       .  S
O711        C746   1.227       .  S
C712        H751   1.081       .  S
C712        O725   1.235       .  S
C712        O749   1.268       .  A
Mg713       O995   2.154       .  S
Mg713       O742   2.130       .  S
Mg713      O1041   2.340       .  S
Mg713       O753   2.312       .  S
Mg713       O724   2.285       .  S
O714       Mg756   2.133       .  S
O714       Mg739   2.153       .  S
O714        C735   1.247       .  S
O715        C746   1.275       .  A
O715       Mg739   2.320       .  S
C716        O718   1.279       .  A
C716        O730   1.279       .  A
C716        N759   1.448       .  S
O717        C745   1.283       .  A
O717       Mg719   2.337       .  S
O718       Mg750   2.287       .  S
Mg719       O725   2.101       .  S
Mg719       O733   2.201       .  S
Mg719       O721   2.390       .  S
C720        C846   1.462       .  S
C720       O1042   1.265       .  A
C720        O726   1.279   1_556  A
O721        C728   1.281       .  A
H722        C735   1.081       .  S
C723       H1032   1.071       .  S
C723       O1021   1.227       .  S
C723        O738   1.274       .  A
O724        C747   1.268       .  A
O725       Mg739   2.139       .  S
O726       Mg756   2.330       .  S
C727        O740   1.277       .  A
C727        O732   1.282       .  A
C727        N821   1.461       .  S
C728        O755   1.277       .  A
C728        N828   1.448       .  S
Mg729       O736   2.098       .  S
Mg729      O1021   2.075       .  S
Mg729       O730   2.375       .  S
Mg729      O1015   2.324       .  S
Mg729       O758   2.201       .  S
O731        C735   1.281       .  A
O731      Mg1013   2.324   1_554  S
O732       Mg739   2.368       .  S
O733        C752   1.265       .  A
O734        C754   1.280       .  A
O734       Mg750   2.361       .  S
O736       Mg750   2.138       .  S
O736        C747   1.235       .  S
O737      Mg1013   2.075       .  S
O737       Mg756   2.148   1_556  S
O737       C1007   1.227       .  S
O738       Mg750   2.307       .  S
Mg739       O755   2.273       .  S
O740       Mg756   2.303       .  S
H741        C746   1.073       .  S
O742       Mg750   2.170       .  S
O742       C1029   1.247       .  S
H743       C1029   1.081       .  S
H744        C747   1.081       .  S
C745       H1027   1.081   1_554  S
C745       O1026   1.247   1_554  S
H748       C1007   1.071       .  S
O749       Mg756   2.286       .  S
C752        O757   1.281       .  A
O753        C754   1.280       .  A
C754        N814   1.462       .  S
O757       Mg997   2.340       .  S
O758       C1004   1.265       .  A
N759        C763   1.365       .  A
N759        C760   1.364       .  A
C760        C761   1.393       .  A
C760        C822   1.497       .  S
C761        C762   1.373       .  A
C761        H764   1.083       .  S
C762        C763   1.377       .  A
C762        H765   1.082       .  S
C763        C783   1.499       .  S
O766       Mg768   2.141       .  S
O766      Mg1058   2.135   1_554  S
O766       C1085   1.242       .  S
C767        H806   1.081       .  S
C767        O780   1.236       .  S
C767        O804   1.269       .  A
Mg768       O797   2.097       .  S
Mg768       O812   2.285       .  S
Mg768       O808   2.218       .  S
Mg768       O779   2.300       .  S
O769       Mg811   2.096       .  S
O769       Mg794   2.107       .  S
O769       C1074   1.245       .  S
O770        C801   1.270       .  A
O770       Mg794   2.259       .  S
C771        C832   1.498       .  S
C771        O773   1.285       .  A
C771        O785   1.277       .  A
O772        C800   1.279   1_556  A
O772      Mg1058   2.319       .  S
O773       Mg805   2.336       .  S
Mg774      O1050   2.135       .  S
Mg774       O780   2.131       .  S
Mg774      O1056   2.319       .  S
Mg774       O788   2.290       .  S
Mg774       O776   2.368       .  S
C775        O813   1.270       .  A
C775        O781   1.267       .  A
O776        C783   1.281       .  A
H777       C1074   1.081       .  S
C778        H803   1.083       .  S
C778        O793   1.269       .  A
C778        O792   1.271       .  A
O779        C802   1.270       .  A
O780       Mg794   2.134       .  S
O781      Mg1095   2.271       .  S
C782        C818   1.479       .  S
C782        O795   1.263       .  A
C782        O787   1.291       .  A
C783        O810   1.282       .  A
Mg784       O791   2.114       .  S
Mg784       O785   2.335       .  S
Mg784       O786   2.312       .  S
Mg784       O813   2.272       .  S
Mg784       O792   2.218       .  S
O786        C790   1.279       .  A
O787       Mg794   2.390       .  S
O788       C1091   1.274       .  A
O789        C809   1.291       .  A
O789       Mg805   2.393       .  S
C790       H1061   1.081       .  S
C790       O1053   1.245       .  S
O791       Mg805   2.134       .  S
O791        C802   1.236       .  S
O792      Mg1095   2.207       .  S
O793       Mg805   2.271       .  S
Mg794       O810   2.312       .  S
O795       Mg811   2.209       .  S
H796       C1085   1.075       .  S
O797       Mg805   2.126       .  S
O797        C800   1.245       .  S
H798        C800   1.081       .  S
H799        C802   1.081       .  S
C801       H1080   1.075       .  S
C801       O1050   1.242       .  S
O804       Mg811   2.296       .  S
C807        C848   1.481       .  S
C807       O1072   1.274       .  A
C807        O812   1.266   1_556  A
O808        C809   1.264       .  A
C809        C825   1.480       .  S
Mg811      O1065   2.271       .  S
Mg811      O1076   2.207       .  S
N814        C815   1.365       .  A
C815        C829   1.497       .  S
C816        C817   1.373       .  A
C816        H819   1.083       .  S
C817        C818   1.375       .  A
C817        H820   1.083       .  S
N821        C825   1.369       .  A
N821        C822   1.365       .  A
C822        C823   1.393       .  A
C823        C824   1.373       .  A
C823        H826   1.083       .  S
C824        C825   1.375       .  A
C824        H827   1.082       .  S
N828        C829   1.364       .  A
C830        C831   1.373       .  A
C830        H833   1.083       .  S
C831        C832   1.376       .  A
C831        H834   1.082       .  S
C835        C836   1.413       .  A
C835        C840   1.417   1_545  A
C835        C844   1.495       .  S
C836        C837   1.410   1_545  A
C836        H841   1.081       .  S
C837        C838   1.394       .  A
C838        C839   1.393       .  A
C838        H842   1.086       .  S
C839        C840   1.409       .  A
C840        H843   1.084       .  S
C844        C845   1.410       .  A
C844        C849   1.422       .  A
C845        C846   1.400   1_554  A
C845        H850   1.084       .  S
C846       C1131   1.394       .  A
C847       C1130   1.394       .  A
C847       C1132   1.389       .  A
C847        H851   1.087       .  S
C848       C1131   1.389       .  A
C848        C849   1.418   1_556  A
C849        H852   1.081       .  S
C853        C854   1.411   1_455  A
C853        C862   1.482       .  S
C854        H859   1.082       .  S
C856        C857   1.402       .  A
C856        H860   1.085       .  S
C858        H861   1.083       .  S
C862        C867   1.411   1_455  A
C863        C864   1.413       .  A
C863        H868   1.084       .  S
C864       C1059   1.475       .  S
C865        C866   1.396       .  A
C865        H869   1.086       .  S
C866        C867   1.397       .  A
C866       C1036   1.467       .  S
C867        H870   1.082       .  S
O871       Mg873   2.111       .  S
C872        H911   1.081       .  S
C872        O885   1.236       .  S
C872        O909   1.269       .  A
Mg873       O902   2.108       .  S
Mg873       O917   2.329       .  S
Mg873       O913   2.254       .  S
Mg873       O884   2.314       .  S
O874       Mg916   2.096       .  S
O874       Mg899   2.140       .  S
O874        C895   1.248       .  S
O875        C906   1.276       .  A
O875       Mg899   2.289       .  S
C876        C989   1.490       .  S
C876        O878   1.267       .  A
C876        O890   1.285       .  A
O877        C905   1.277       .  A
O878       Mg910   2.200       .  S
Mg879       O885   2.095       .  S
Mg879       O893   2.227   1_556  S
Mg879       O881   2.305       .  S
C880        O918   1.274       .  A
O881        C888   1.271       .  A
H882        C895   1.081       .  S
C883        H908   1.068       .  S
C883        O897   1.226       .  S
C883        O898   1.271       .  A
O884        C907   1.271       .  A
O885       Mg899   2.103       .  S
O886       Mg916   2.290       .  S
C887        O900   1.268       .  A
C887        O892   1.298       .  A
C887        N974   1.445       .  S
C888        O915   1.289       .  A
C888        N919   1.468       .  S
Mg889       O896   2.129       .  S
Mg889       O897   2.072       .  S
Mg889       O890   2.425       .  S
Mg889       O891   2.336       .  S
Mg889       O918   2.251       .  S
O892       Mg899   2.445       .  S
O894        C914   1.275       .  A
O894       Mg910   2.319       .  S
O896       Mg910   2.129       .  S
O896        C907   1.236       .  S
O898       Mg910   2.298       .  S
Mg899       O915   2.381       .  S
O900       Mg916   2.213       .  S
H901        C906   1.074       .  S
O902       Mg910   2.110       .  S
O902        C905   1.243       .  S
H903        C905   1.081       .  S
H904        C907   1.081       .  S
O909       Mg916   2.285       .  S
C912       C1123   1.485       .  S
C912        O917   1.277       .  A
O913        C914   1.270       .  A
C914        C985   1.478       .  S
N919        C923   1.366       .  A
N919        C920   1.371       .  A
C920        C921   1.384       .  A
C920        C969   1.484       .  S
C921        C922   1.367       .  A
C921        H924   1.083       .  S
C922        C923   1.380       .  A
C922        H925   1.078       .  S
C923        C982   1.490       .  S
O926       Mg934   2.107       .  S
O926        C961   1.237       .  S
C927        H966   1.081       .  S
C927        O940   1.237       .  S
C927        O964   1.271       .  A
Mg928       O957   2.128       .  S
Mg928       O968   2.294   1_554  S
Mg928       O939   2.270   1_554  S
O929       Mg971   2.085       .  S
O929       Mg954   2.112       .  S
O929        C950   1.244       .  S
O930        C961   1.273       .  A
O930       Mg954   2.294       .  S
C931        C978   1.482       .  S
C931        O933   1.277       .  A
C931        O945   1.278       .  A
O932        C960   1.280       .  A
O932       Mg934   2.316       .  S
O933       Mg965   2.281       .  S
Mg934       O940   2.133       .  S
Mg934       O948   2.239       .  S
Mg934       O936   2.314       .  S
C935        O941   1.270       .  A
O936        C943   1.272       .  A
H937        C950   1.081       .  S
C938        H963   1.082       .  S
C938        O952   1.270       .  A
O939        C962   1.264       .  A
O940       Mg954   2.145       .  S
O941       Mg971   2.307       .  S
C942        O955   1.259       .  A
C942        O947   1.300       .  A
C942        N988   1.454       .  S
C943        O970   1.288       .  A
C943        N981   1.453       .  S
Mg944       O951   2.080       .  S
Mg944       O945   2.329       .  S
Mg944       O973   2.247       .  S
O946        C950   1.279       .  A
O947       Mg954   2.472       .  S
O948        C967   1.267       .  A
O949        C969   1.282       .  A
O949       Mg965   2.318       .  S
O951       Mg965   2.129       .  S
O951        C962   1.232       .  S
O952       Mg971   2.179       .  S
O953       Mg965   2.280       .  S
Mg954       O970   2.347       .  S
O955       Mg971   2.155       .  S
H956        C961   1.064       .  S
O957       Mg965   2.119   1_554  S
H958        C960   1.081       .  S
H959        C962   1.081       .  S
O964       Mg971   2.297       .  S
C967       C1121   1.462       .  S
C967        O972   1.273       .  A
O968        C969   1.274       .  A
N974        C975   1.354       .  A
C976        C977   1.374       .  A
C976        H979   1.075       .  S
C977        C978   1.379       .  A
C977        H980   1.083       .  S
N981        C985   1.354       .  A
N981        C982   1.354       .  A
C982        C983   1.384       .  A
C983        C984   1.373       .  A
C983        H986   1.079       .  S
C984        C985   1.381       .  A
C984        H987   1.083       .  S
N988        C992   1.360       .  A
C989        C990   1.383       .  A
C990        C991   1.373       .  A
C990        H993   1.083       .  S
C991        H994   1.075       .  S
O995      Mg1003   2.075       .  S
O995       C1030   1.227       .  S
C996       H1035   1.081       .  S
C996       O1009   1.235       .  S
C996       O1033   1.268       .  A
Mg997      O1026   2.130   1_554  S
Mg997      O1037   2.312   1_554  S
Mg997      O1008   2.285   1_554  S
O998      Mg1040   2.133       .  S
O998      Mg1023   2.153       .  S
O998       C1019   1.247       .  S
O999       C1030   1.275       .  A
O999      Mg1023   2.320       .  S
C1000      O1002   1.279       .  A
C1000      O1014   1.279       .  A
C1000      N1043   1.448       .  S
O1001      C1029   1.283       .  A
O1001     Mg1003   2.337       .  S
O1002     Mg1034   2.287       .  S
Mg1003     O1009   2.101       .  S
Mg1003     O1017   2.201       .  S
Mg1003     O1005   2.389       .  S
C1004      C1130   1.462       .  S
C1004      O1010   1.279       .  A
O1005      C1012   1.281       .  A
H1006      C1019   1.081       .  S
C1007      O1022   1.274       .  A
O1008      C1031   1.268       .  A
O1009     Mg1023   2.139       .  S
O1010     Mg1040   2.330       .  S
C1011      O1024   1.277       .  A
C1011      O1016   1.282       .  A
C1011      N1105   1.461       .  S
C1012      O1039   1.277       .  A
C1012      N1112   1.448       .  S
Mg1013     O1020   2.098       .  S
Mg1013     O1014   2.375       .  S
Mg1013     O1042   2.201       .  S
O1015      C1019   1.281       .  A
O1016     Mg1023   2.368       .  S
O1017      C1036   1.265       .  A
O1018      C1038   1.280       .  A
O1018     Mg1034   2.361       .  S
O1020     Mg1034   2.138       .  S
O1020      C1031   1.235       .  S
O1021     Mg1040   2.148       .  S
O1022     Mg1034   2.307       .  S
Mg1023     O1039   2.274       .  S
O1024     Mg1040   2.303       .  S
H1025      C1030   1.073       .  S
O1026     Mg1034   2.170       .  S
H1028      C1031   1.081       .  S
O1033     Mg1040   2.286       .  S
C1036      O1041   1.281       .  A
O1037      C1038   1.280       .  A
C1038      N1098   1.461       .  S
N1043      C1047   1.365       .  A
N1043      C1044   1.364       .  A
C1044      C1045   1.393       .  A
C1044      C1106   1.498       .  S
C1045      C1046   1.373       .  A
C1045      H1048   1.083       .  S
C1046      C1047   1.377       .  A
C1046      H1049   1.082       .  S
C1047      C1067   1.499       .  S
O1050     Mg1052   2.141       .  S
C1051      H1090   1.081       .  S
C1051      O1064   1.236       .  S
C1051      O1088   1.269       .  A
Mg1052     O1081   2.097       .  S
Mg1052     O1096   2.285       .  S
Mg1052     O1092   2.218       .  S
Mg1052     O1063   2.300       .  S
O1053     Mg1095   2.096       .  S
O1053     Mg1078   2.107   1_554  S
O1054      C1085   1.270   1_556  A
O1054     Mg1078   2.259       .  S
C1055      C1116   1.498       .  S
C1055      O1057   1.285       .  A
C1055      O1069   1.277       .  A
O1056      C1084   1.279       .  A
O1057     Mg1089   2.336       .  S
Mg1058     O1064   2.131       .  S
Mg1058     O1072   2.289       .  S
Mg1058     O1060   2.367       .  S
C1059      O1097   1.270       .  A
C1059      O1065   1.267       .  A
O1060      C1067   1.281       .  A
C1062      H1087   1.083       .  S
C1062      O1077   1.269       .  A
C1062      O1076   1.271       .  A
O1063      C1086   1.270       .  A
O1064     Mg1078   2.134       .  S
C1066      C1102   1.479       .  S
C1066      O1079   1.263       .  A
C1066      O1071   1.291       .  A
C1067      O1094   1.282       .  A
Mg1068     O1075   2.114       .  S
Mg1068     O1069   2.336       .  S
Mg1068     O1070   2.312       .  S
Mg1068     O1097   2.272       .  S
Mg1068     O1076   2.218       .  S
O1070      C1074   1.279       .  A
O1071     Mg1078   2.390       .  S
O1073      C1093   1.291       .  A
O1073     Mg1089   2.393       .  S
O1075     Mg1089   2.134       .  S
O1075      C1086   1.236       .  S
O1077     Mg1089   2.271       .  S
Mg1078     O1094   2.312       .  S
O1079     Mg1095   2.209   1_556  S
O1081     Mg1089   2.126       .  S
O1081      C1084   1.245       .  S
H1082      C1084   1.081       .  S
H1083      C1086   1.081       .  S
O1088     Mg1095   2.296   1_556  S
C1091      C1132   1.481       .  S
C1091      O1096   1.266       .  A
O1092      C1093   1.264       .  A
C1093      C1109   1.480       .  S
N1098      C1099   1.365       .  A
C1099      C1113   1.497       .  S
C1100      C1101   1.373       .  A
C1100      H1103   1.083       .  S
C1101      C1102   1.375       .  A
C1101      H1104   1.083       .  S
N1105      C1109   1.369       .  A
N1105      C1106   1.365       .  A
C1106      C1107   1.393       .  A
C1107      C1108   1.373       .  A
C1107      H1110   1.083       .  S
C1108      C1109   1.375       .  A
C1108      H1111   1.082       .  S
N1112      C1113   1.364       .  A
C1114      C1115   1.373       .  A
C1114      H1117   1.083       .  S
C1115      C1116   1.376       .  A
C1115      H1118   1.082       .  S
C1119      C1120   1.413       .  A
C1119      C1124   1.417   1_545  A
C1119      C1128   1.495       .  S
C1120      C1121   1.410   1_545  A
C1120      H1125   1.081       .  S
C1121      C1122   1.394       .  A
C1122      C1123   1.393       .  A
C1122      H1126   1.086       .  S
C1123      C1124   1.409       .  A
C1124      H1127   1.084       .  S
C1128      C1129   1.410       .  A
C1128      C1133   1.422       .  A
C1129      C1130   1.400       .  A
C1129      H1134   1.084       .  S
C1131      H1135   1.087       .  S
C1132      C1133   1.418       .  A
C1133      H1136   1.081       .  S
