geometry optimzed in LAMMPS
_audit_creation_date              2020-11-30 
_audit_creation_method            'lammps2cif' 
_symmetry_space_group_name_H-M    'P1' 
_symmetry_Int_Tables_number       1 
_symmetry_cell_setting            triclinic 
loop_ 
_symmetry_equiv_pos_as_xyz 
  x,y,z 
_cell_length_a                    54.721569083224466 
_cell_length_b                    54.83998090990591 
_cell_length_c                    25.098459218274588 
_cell_angle_alpha                 90.01844788076332 
_cell_angle_beta                  89.9210534605243 
_cell_angle_gamma                 132.02664871558358 
loop_ 
_atom_site_label 
_atom_site_type_symbol 
_atom_site_fract_x 
_atom_site_fract_y 
_atom_site_fract_z 
_atom_site_charge 
C1          C  0.36101020  0.87872501  0.49939282     0.02870
C2          C  0.35447749  0.86281135  0.04816348    -0.13280
C3          C  0.34033788  0.82997387  0.04966652     0.00370
C4          C  0.33304224  0.81320868  0.00143727    -0.11810
C5          C  0.34001666  0.82912044  0.45249418     0.02860
C6          C  0.35432004  0.86189415  0.45166013    -0.11230
H7          H  0.35946767  0.87571050  0.08507481     0.08460
H8          H  0.32072957  0.78745874  0.00185171     0.05980
H9          H  0.35915843  0.87390354  0.41375725     0.05830
C10         C  0.21586976  0.38366499  0.49813382     0.02870
C11         C  0.21060381  0.39235992  0.04647318    -0.13280
C12         C  0.20005516  0.40966572  0.04687729     0.00370
C13         C  0.19436400  0.41794873  0.49830506    -0.11810
C14         C  0.19857240  0.40837453  0.44967044     0.02860
C15         C  0.20934256  0.39129695  0.45000023    -0.11230
H16         H  0.21593178  0.38679280  0.08378798     0.08460
H17         H  0.18685846  0.43189968  0.49832587     0.05980
H18         H  0.21308843  0.38431580  0.41256832     0.05830
C19         C  0.29804455  0.75936161  0.25143698     0.00300
C20         C  0.27751240  0.72587577  0.25017463     0.00300
O21         O  0.20131509  0.63825085  0.46385086    -0.85610
O22         O  0.13792997  0.58809750  0.42990620    -0.82650
C23         C  0.11061940  0.55951714  0.42261975     0.97850
O24         O  0.10138761  0.53640510  0.45373331    -0.82690
O25         O  0.14169842  0.52433058  0.43167947    -0.85330
C26         C  0.16794083  0.52973961  0.42739725     1.02380
O27         O  0.19226599  0.55072308  0.45702743    -0.78100
O28         O  0.21585355  0.61265682  0.43181200    -0.78280
C29         C  0.21599299  0.63574253  0.42881821     1.02330
O30         O  0.17986733  0.61876087  0.07055285    -0.85610
O31         O  0.11552457  0.57405561  0.03660474    -0.82670
C32         C  0.10473044  0.55196388  0.07052247     0.97870
O33         O  0.11206532  0.53461527  0.06652690    -0.82700
O34         O  0.14804595  0.51772883  0.04195235    -0.85300
C35         C  0.17258435  0.53405580  0.07277128     1.02340
O36         O  0.19516710  0.56475768  0.06724026    -0.78120
O37         O  0.22374656  0.62812581  0.04447962    -0.78270
C38         C  0.20988308  0.63363762  0.07629881     1.02310
Cr39       Cr  0.15899919  0.60259909  0.00017290     1.93740
Cr40       Cr  0.12837678  0.53145808  0.99856999     1.93210
Cr41       Cr  0.20380480  0.58802268  0.99991712     1.39100
O42         O  0.16374398  0.57384767  0.99931313    -1.23360
C43         C  0.18777993  0.45256351  0.24846990     0.00300
C44         C  0.18082395  0.47231615  0.25050567     0.00300
C45         C  0.02630951  0.53221443  0.24841565     0.00300
C46         C  0.00002959  0.53019035  0.24807756     0.00300
C47         C  0.89878965  0.51221130  0.99906527     0.02870
C48         C  0.91434837  0.51657865  0.04702235    -0.13280
C49         C  0.94450685  0.52432230  0.04656415     0.00370
C50         C  0.95941057  0.52838424  0.99770006    -0.11810
C51         C  0.94422440  0.52472336  0.44937547     0.02860
C52         C  0.91381983  0.51654744  0.45046751    -0.11230
H53         H  0.90232682  0.51257114  0.08459873     0.08460
H54         H  0.98233382  0.53360510  0.99736884     0.05980
H55         H  0.90145917  0.51276992  0.41349771     0.05830
C56         C  0.76847072  0.46653169  0.50000873     0.02870
C57         C  0.75147031  0.45906742  0.45226251    -0.13280
C58         C  0.71850571  0.44462401  0.45304274     0.00370
C59         C  0.70241034  0.43709888  0.50225523    -0.11810
C60         C  0.71926252  0.44416105  0.05042542     0.02860
C61         C  0.75250044  0.45943082  0.04884799    -0.11230
H62         H  0.76373705  0.46406749  0.41451434     0.08460
H63         H  0.67674169  0.42528317  0.50303064     0.05980
H64         H  0.76570489  0.46504594  0.08568783     0.05830
C65         C  0.27168359  0.32401294  0.50164572     0.02870
C66         C  0.28023117  0.31813618  0.45372913    -0.13280
C67         C  0.29869268  0.30889854  0.45398791     0.00370
C68         C  0.30795184  0.30465089  0.50289781    -0.11810
C69         C  0.29936959  0.31020733  0.05135916     0.02860
C70         C  0.28141472  0.32009204  0.05015326    -0.11230
H71         H  0.27349830  0.32189954  0.41604822     0.08460
H72         H  0.32236708  0.29765769  0.50313773     0.05980
H73         H  0.27573787  0.32557034  0.08708577     0.05830
C74         C  0.64984745  0.40874051  0.25123634     0.00300
C75         C  0.61631413  0.38860378  0.24762726     0.00300
C76         C  0.34030986  0.29433983  0.25219976     0.00300
C77         C  0.36454478  0.29312411  0.25128539     0.00300
O78         O  0.52874785  0.30946950  0.03707290    -0.85610
O79         O  0.47807234  0.24534519  0.06855514    -0.82650
C80         C  0.44928822  0.21789756  0.07438331     0.97850
O81         O  0.42642787  0.20932604  0.04335886    -0.82690
O82         O  0.41444643  0.24942209  0.06869613    -0.85330
C83         C  0.42063394  0.27589623  0.07542616     1.02380
O84         O  0.44089488  0.30022830  0.04517287    -0.78100
O85         O  0.50330090  0.32452272  0.06767458    -0.78280
C86         C  0.52724677  0.32589892  0.06967375     1.02330
O87         O  0.51004348  0.28981547  0.42944275    -0.85610
O88         O  0.46510737  0.22524101  0.46059397    -0.82670
C89         C  0.44289007  0.21455822  0.42693261     0.97870
O90         O  0.42474745  0.22097759  0.43175841    -0.82700
O91         O  0.40749987  0.25674732  0.45866496    -0.85300
C92         C  0.42379267  0.28171224  0.42874107     1.02340
O93         O  0.45454850  0.30401304  0.43408479    -0.78120
O94         O  0.51822868  0.33292637  0.45542224    -0.78270
C95         C  0.52409771  0.31952097  0.42340666     1.02310
Cr96       Cr  0.49323572  0.26785484  0.49909973     1.93740
Cr97       Cr  0.42157879  0.23685548  0.50054433     1.93210
Cr98       Cr  0.47809156  0.31226924  0.50068205     1.39100
O99         O  0.46417556  0.27235114  0.50035070    -1.23360
C100        C  0.42847239  0.13834749  0.25031708     0.00300
C101        C  0.42381746  0.11060147  0.25145459     0.00300
C102        C  0.40558044  0.00879988  0.50101321     0.02870
C103        C  0.40820914  0.02313997  0.04954499    -0.13280
C104        C  0.41524220  0.05287917  0.05034529     0.00370
C105        C  0.41816483  0.06760161  0.50189746    -0.11810
C106        C  0.41470100  0.05297361  0.45300738     0.02860
C107        C  0.40920466  0.02407405  0.45302481    -0.11230
H108        H  0.40454125  0.01103888  0.08677395     0.08460
H109        H  0.42277039  0.09014114  0.50226408     0.05980
H110        H  0.40727937  0.01313781  0.41545790     0.05830
C111        C  0.44668490  0.09793569  0.38574611    -0.26580
C112        C  0.41664115  0.06757299  0.40158034    -0.14650
C113        C  0.38913967  0.05112880  0.36725166     0.35980
C114        C  0.39214260  0.06548343  0.31861293    -0.26030
C115        C  0.42207652  0.09599389  0.30306065    -0.15270
C116        C  0.44972347  0.11202715  0.33655902     0.37060
N117        N  0.48112816  0.14212416  0.32009811    -0.89520
H118        H  0.46805000  0.11046163  0.41124335     0.18180
H119        H  0.37083556  0.05287713  0.29295289     0.18170
N120        N  0.35766325  0.02025326  0.38134635    -0.88540
H121        H  0.49741992  0.13828462  0.31810519     0.35550
H122        H  0.48968206  0.15966048  0.34968057     0.40640
H123        H  0.35064646  0.02281866  0.41817653     0.40260
H124        H  0.35968363  0.00270078  0.38500617     0.35150
C125        C  0.39275896  0.06668295  0.11721673    -0.26580
C126        C  0.41805831  0.06761471  0.10216268    -0.14650
C127        C  0.44430149  0.08077627  0.13815748     0.35980
C128        C  0.44498807  0.09361444  0.18716070    -0.26030
C129        C  0.42044077  0.09404534  0.20103083    -0.15270
C130        C  0.39348525  0.07929227  0.16648862     0.37060
N131        N  0.36624317  0.07603009  0.18204174    -0.89520
H132        H  0.37199683  0.05558804  0.09085226     0.18180
H133        H  0.46546414  0.10430524  0.21398895     0.18170
N134        N  0.47114181  0.08255644  0.12590722    -0.88540
H135        H  0.34534748  0.05098649  0.18376950     0.35550
H136        H  0.36230686  0.08627476  0.15201614     0.40640
H137        H  0.46947235  0.07433294  0.08746517     0.40260
H138        H  0.46984546  0.06697550  0.15230143     0.35150
C139        C  0.46210105  0.18493812  0.31250215    -0.26580
C140        C  0.43096245  0.15511453  0.29931633    -0.14650
C141        C  0.40306742  0.14481188  0.32801385     0.35980
C142        C  0.40732899  0.16481053  0.36907533    -0.26030
C143        C  0.43873209  0.19440677  0.38258326    -0.15270
C144        C  0.46646983  0.20430399  0.35440009     0.37060
N145        N  0.49896126  0.23459608  0.36706833    -0.89520
H146        H  0.48335497  0.19322783  0.28999787     0.18180
H147        H  0.38602120  0.15698164  0.39099415     0.18170
N148        N  0.37025086  0.11470599  0.31640344    -0.88540
H149        H  0.51605909  0.23985512  0.33894865     0.35550
H150        H  0.50585496  0.23125426  0.40319207     0.40640
H151        H  0.36995326  0.10166874  0.28577125     0.40260
H152        H  0.35687461  0.12082253  0.30288398     0.35150
C153        C  0.46878978  0.19807649  0.13471218    -0.26580
C154        C  0.44267222  0.19514595  0.11634943    -0.14650
C155        C  0.41101316  0.17086801  0.13877903     0.35980
C156        C  0.40691469  0.15203241  0.18163182    -0.26030
C157        C  0.43299028  0.15509171  0.19995619    -0.15270
C158        C  0.46415566  0.17791291  0.17568788     0.37060
N159        N  0.49134652  0.18173522  0.19452215    -0.89520
H160        H  0.49297661  0.21620492  0.11702325     0.18180
H161        H  0.38331307  0.13521342  0.20156470     0.18170
N162        N  0.38322859  0.16563832  0.11875098    -0.88540
H163        H  0.51291941  0.20070185  0.17408553     0.35550
H164        H  0.48645644  0.16027973  0.18534513     0.40640
H165        H  0.38738613  0.18683961  0.12628937     0.40260
H166        H  0.36179557  0.14661875  0.13940137     0.35150
C167        C  0.37110770  0.25973592  0.19921661    -0.26580
C168        C  0.37574916  0.28815878  0.20155651    -0.14650
C169        C  0.39387019  0.31186769  0.16047087     0.35980
C170        C  0.40698473  0.30648988  0.11903317    -0.26030
C171        C  0.40383838  0.27880679  0.11829049    -0.15270
C172        C  0.38542961  0.25508237  0.15908103     0.37060
N173        N  0.38240583  0.22701010  0.16129706    -0.89520
H174        H  0.35728587  0.24156468  0.23058152     0.18180
H175        H  0.42102334  0.32502872  0.08824582     0.18170
N176        N  0.40187728  0.34273153  0.16133457    -0.88540
H177        H  0.36691134  0.21133250  0.19249244     0.35550
H178        H  0.40569505  0.23563516  0.17041918     0.40640
H179        H  0.39439723  0.34611196  0.19657452     0.40260
H180        H  0.38938548  0.34273118  0.12985806     0.35150
C181        C  0.35895774  0.26494991  0.33480226    -0.26580
C182        C  0.37882669  0.29234701  0.30111185    -0.14650
C183        C  0.41277296  0.31709366  0.31216318     0.35980
C184        C  0.42627756  0.31340899  0.35486647    -0.26030
C185        C  0.40696096  0.28525546  0.38719709    -0.15270
C186        C  0.37253680  0.26115213  0.37802521     0.37060
N187        N  0.35152194  0.23267969  0.41164732    -0.89520
H188        H  0.33290881  0.24601522  0.32628246     0.18180
H189        H  0.45249924  0.33256527  0.36170052     0.18170
N190        N  0.43435260  0.34628494  0.28063439    -0.88540
H191        H  0.32726635  0.21687721  0.39785763     0.35550
H192        H  0.35120539  0.24070257  0.44922738     0.40640
H193        H  0.42489803  0.35765704  0.27878770     0.40260
H194        H  0.43577004  0.33996417  0.24232446     0.35150
C195        C  0.54605432  0.32094656  0.33628191    -0.26580
C196        C  0.54815767  0.33853099  0.37936489    -0.14650
C197        C  0.57376430  0.37316963  0.38019113     0.35980
C198        C  0.59656205  0.38913887  0.33788786    -0.26030
C199        C  0.59414120  0.37129510  0.29482301    -0.15270
C200        C  0.56876566  0.33673118  0.29449234     0.37060
N201        N  0.56624577  0.31764918  0.25178083    -0.89520
H202        H  0.52641754  0.29454094  0.33500066     0.18180
H203        H  0.61579364  0.41566184  0.33776264     0.18170
N204        N  0.57694168  0.39201541  0.42398692    -0.88540
H205        H  0.54604638  0.29261800  0.25730129     0.35550
H206        H  0.58718888  0.32059969  0.25287555     0.40640
H207        H  0.55738732  0.39128172  0.42157239     0.40260
H208        H  0.59838945  0.41672158  0.42006778     0.35150
C209        C  0.60178475  0.36321324  0.15730053    -0.26580
C210        C  0.59895463  0.37987508  0.19543828    -0.14650
C211        C  0.57487679  0.38217399  0.18803649     0.35980
C212        C  0.55233437  0.36507810  0.14615032    -0.26030
C213        C  0.55388959  0.34669369  0.10978283    -0.15270
C214        C  0.58028458  0.34746051  0.11380465     0.37060
N215        N  0.58466816  0.33133938  0.07501768    -0.89520
H216        H  0.61953425  0.36063332  0.16317234     0.18180
H217        H  0.53314834  0.36588130  0.14262564     0.18170
N218        N  0.57231394  0.40128941  0.22254011    -0.88540
H219        H  0.60431004  0.33310516  0.08537981     0.35550
H220        H  0.59136746  0.34415294  0.03913639     0.40640
H221        H  0.59256375  0.41623499  0.24782517     0.40260
H222        H  0.55128610  0.38501201  0.24608247     0.35150
C223        C  0.30319570  0.27705934  0.11286652    -0.26580
C224        C  0.30928427  0.30595350  0.10330955    -0.14650
C225        C  0.32418270  0.33008142  0.14368507     0.35980
C226        C  0.33213199  0.32453393  0.19268278    -0.26030
C227        C  0.32707098  0.29618135  0.20165011    -0.15270
C228        C  0.31178248  0.27180684  0.16158293     0.37060
N229        N  0.30521846  0.24197467  0.17016111    -0.89520
H230        H  0.29137176  0.25833586  0.08226976     0.18180
H231        H  0.34405201  0.34331694  0.22320678     0.18170
N232        N  0.33228603  0.36064535  0.13418467    -0.88540
H233        H  0.29488093  0.22718669  0.13614867     0.35550
H234        H  0.28760883  0.22878022  0.20025227     0.40640
H235        H  0.34992512  0.37290836  0.10383839     0.40260
H236        H  0.34319960  0.37572051  0.16783490     0.35150
C237        C  0.28606118  0.28123847  0.36639261    -0.26580
C238        C  0.30960220  0.30540609  0.40274592    -0.14650
C239        C  0.34319115  0.32690803  0.38901606     0.35980
C240        C  0.35258969  0.32345971  0.33944034    -0.26030
C241        C  0.32923419  0.29821432  0.30387266    -0.15270
C242        C  0.29552045  0.27709750  0.31747276     0.37060
N243        N  0.27103671  0.25099442  0.28223793    -0.89520
H244        H  0.26022748  0.26502295  0.37688872     0.18180
H245        H  0.37831420  0.34063825  0.32846626     0.18170
N246        N  0.36756715  0.35242566  0.42522719    -0.88540
H247        H  0.24741314  0.23882600  0.29676813     0.35550
H248        H  0.27370122  0.23383137  0.28286344     0.40640
H249        H  0.36374148  0.36864027  0.42913174     0.40260
H250        H  0.39118430  0.36596609  0.40939437     0.35150
C251        C  0.68915755  0.44957129  0.11641454    -0.26580
C252        C  0.70224960  0.43545896  0.10260520    -0.14650
C253        C  0.69978366  0.41431488  0.13961685     0.35980
C254        C  0.68482858  0.40841030  0.18920127    -0.26030
C255        C  0.67066173  0.42150147  0.20215305    -0.15270
C256        C  0.67366337  0.44313792  0.16576718     0.37060
N257        N  0.66130487  0.45887800  0.17735937    -0.89520
H258        H  0.69129837  0.46607396  0.08869556     0.18180
H259        H  0.68235252  0.39161769  0.21669649     0.18170
N260        N  0.71085835  0.39735347  0.12785387    -0.88540
H261        H  0.68130737  0.48422024  0.17664213     0.35550
H262        H  0.65173746  0.45348298  0.21588787     0.40640
H263        H  0.71893309  0.40103056  0.08861260     0.40260
H264        H  0.69049308  0.37217836  0.13090233     0.35150
C265        C  0.67764616  0.40298219  0.38682484    -0.26580
C266        C  0.70065028  0.43608503  0.40208513    -0.14650
C267        C  0.70740435  0.46026478  0.36705042     0.35980
C268        C  0.69052463  0.45052223  0.31836181    -0.26030
C269        C  0.66710047  0.41735705  0.30350398    -0.15270
C270        C  0.66133616  0.39351014  0.33760944     0.37060
N271        N  0.63978680  0.35980958  0.32173821    -0.89520
H272        H  0.67296212  0.38442021  0.41272615     0.18180
H273        H  0.69559461  0.46908813  0.29194571     0.18170
N274        N  0.73105742  0.49476081  0.37927739    -0.88540
H275        H  0.62156384  0.34580013  0.35091513     0.35550
H276        H  0.65335944  0.35268866  0.32088652     0.40640
H277        H  0.74167468  0.49932206  0.41666771     0.40260
H278        H  0.71843569  0.50291776  0.38118483     0.35150
C279        C  0.86163220  0.52314124  0.00062986    -0.26580
C280        C  0.86535238  0.50021510  0.99955617    -0.14650
C281        C  0.83716757  0.46642891  0.49762445     0.35980
C282        C  0.80597125  0.45636175  0.49750905    -0.26030
C283        C  0.80220120  0.47922554  0.49907118    -0.15270
C284        C  0.83033600  0.51300357  0.00051503     0.37060
N285        N  0.82821904  0.53776543  0.00128847    -0.89520
H286        H  0.88325914  0.54914909  0.00144744     0.18180
H287        H  0.78436424  0.43034192  0.49644048     0.18170
N288        N  0.83910026  0.44152160  0.49639749    -0.88540
H289        H  0.83805550  0.55032349  0.03746644     0.35550
H290        H  0.80388412  0.52754102  0.00018628     0.40640
H291        H  0.86332093  0.45145528  0.49778669     0.40260
H292        H  0.82939118  0.42922223  0.45999378     0.35150
C293        C  0.00432313  0.55556689  0.33486284    -0.26580
C294        C  0.98515088  0.52917770  0.29892680    -0.14650
C295        C  0.95209138  0.50179467  0.31231195     0.35980
C296        C  0.93938558  0.50095020  0.36133110    -0.26030
C297        C  0.95876913  0.52699071  0.39765609    -0.15270
C298        C  0.99145124  0.55464548  0.38399063     0.37060
N299        N  0.01140011  0.58211480  0.41939741    -0.89520
H300        H  0.02934735  0.57715395  0.32452428     0.18180
H301        H  0.91421973  0.47950907  0.37147348     0.18170
N302        N  0.93112443  0.47398430  0.27779822    -0.88540
H303        H  0.03240552  0.58596719  0.42848854     0.35550
H304        H  0.01889776  0.60285048  0.39921373     0.40640
H305        H  0.94268281  0.46519707  0.26863073     0.40260
H306        H  0.92746282  0.48139850  0.24273468     0.35150
C307        C  0.97088739  0.55116128  0.13354684    -0.26580
C308        C  0.95918707  0.52595939  0.09734624    -0.14650
C309        C  0.96048731  0.50188422  0.11059892     0.35980
C310        C  0.97346348  0.50348366  0.16010420    -0.26030
C311        C  0.98539898  0.52881142  0.19651413    -0.15270
C312        C  0.98412778  0.55297738  0.18263697     0.37060
N313        N  0.99688888  0.58014127  0.21680421    -0.89520
H314        H  0.96991445  0.56970426  0.12335910     0.18180
H315        H  0.97401654  0.48472731  0.17062586     0.18170
N316        N  0.94829914  0.47575623  0.07391934    -0.88540
H317        H  0.98301313  0.57125654  0.25181823     0.35550
H318        H  0.02131402  0.59225690  0.22602523     0.40640
H319        H  0.92298529  0.46163835  0.06978894     0.40260
H320        H  0.95128636  0.46021189  0.08950284     0.35150
C321        C  0.20073090  0.50071145  0.33860171    -0.26160
C322        C  0.17494550  0.48126632  0.30193605    -0.14650
C323        C  0.14523254  0.47400236  0.31107279     0.35980
C324        C  0.14315020  0.48908435  0.35362686    -0.26030
C325        C  0.17007180  0.51115922  0.38755342    -0.15270
C326        C  0.19853351  0.51544101  0.38177995     0.37060
N327        N  0.22542505  0.53526383  0.41870304    -0.89520
H328        H  0.22334430  0.50583693  0.33183561     0.18180
H329        H  0.12067356  0.48440525  0.35894023     0.18170
N330        N  0.11733175  0.45151638  0.27693715    -0.88540
H331        H  0.24473748  0.53664974  0.40748447     0.35550
H332        H  0.21700458  0.52323697  0.45552538     0.40640
H333        H  0.12186411  0.46365616  0.24117509     0.40260
H334        H  0.09636399  0.44573010  0.29311558     0.35150
C335        C  0.19698605  0.53642012  0.15773474    -0.26580
C336        C  0.17502024  0.51722466  0.11584074    -0.14650
C337        C  0.15624995  0.48279355  0.11666034     0.35980
C338        C  0.15898780  0.46862368  0.15988796    -0.26030
C339        C  0.18037807  0.48792855  0.20227793    -0.15270
C340        C  0.19991173  0.52222426  0.20044398     0.37060
N341        N  0.22325941  0.54292922  0.24163602    -0.89520
H342        H  0.21192472  0.56277129  0.15787434     0.18180
H343        H  0.14368835  0.44223288  0.16099756     0.18170
N344        N  0.13449234  0.46150957  0.07431056    -0.88540
H345        H  0.24657419  0.55985019  0.22423855     0.35550
H346        H  0.21738282  0.55591328  0.25840963     0.40640
H347        H  0.14772998  0.47012158  0.03855593     0.40260
H348        H  0.11546078  0.46154698  0.07194758     0.35150
C349        C  0.07590406  0.57070914  0.30341118    -0.26580
C350        C  0.04514344  0.53901026  0.29745495    -0.14650
C351        C  0.03546153  0.51411805  0.33317796     0.35980
C352        C  0.05721221  0.52146241  0.37375703    -0.26030
C353        C  0.08855650  0.55311527  0.37904579    -0.15270
C354        C  0.09789372  0.57806719  0.34314279     0.37060
N355        N  0.12980183  0.61062472  0.34606785    -0.89520
H356        H  0.08326689  0.58966419  0.27544976     0.18180
H357        H  0.04968298  0.50217072  0.40101121     0.18170
N358        N  0.00429399  0.48129564  0.32691338    -0.88540
H359        H  0.13188283  0.62624289  0.31853714     0.35550
H360        H  0.14713516  0.60910528  0.33465049     0.40640
H361        H  0.98596012  0.48167362  0.33613611     0.40260
H362        H  0.00183226  0.46550464  0.35454572     0.35150
C363        C  0.06427163  0.51688002  0.14301848    -0.26580
C364        C  0.08300472  0.54629046  0.11387510    -0.14650
C365        C  0.08105262  0.57010611  0.12712361     0.35980
C366        C  0.06036253  0.56376252  0.16871724    -0.26030
C367        C  0.04252479  0.53484564  0.19854332    -0.15270
C368        C  0.04421892  0.51102964  0.18548539     0.37060
N369        N  0.02610975  0.48133718  0.21617090    -0.89520
H370        H  0.06555101  0.49852977  0.13309895     0.18180
H371        H  0.05948434  0.58224763  0.17997242     0.18170
N372        N  0.10098770  0.60119404  0.09996970    -0.88540
H373        H  0.03035063  0.46653679  0.20187819     0.35550
H374        H  0.00106867  0.46811898  0.21078153     0.40640
H375        H  0.12551561  0.61408307  0.10989215     0.40260
H376        H  0.09584829  0.61535470  0.11373779     0.35150
C377        C  0.21558583  0.67110879  0.14155283    -0.26580
C378        C  0.22905551  0.65904726  0.11832429    -0.14650
C379        C  0.26051150  0.67206189  0.13483659     0.35980
C380        C  0.27694142  0.69576688  0.17546421    -0.26030
C381        C  0.26280529  0.70682174  0.19986182    -0.15270
C382        C  0.23213680  0.69506009  0.18128460     0.37060
N383        N  0.21660532  0.70619528  0.20225449    -0.89520
H384        H  0.19185770  0.66201395  0.12858394     0.18180
H385        H  0.30050455  0.70491295  0.18931235     0.18170
N386        N  0.27533199  0.66064814  0.11162271    -0.88540
H387        H  0.21343593  0.71624676  0.17063383     0.35550
H388        H  0.23187507  0.72535240  0.22906715     0.40640
H389        H  0.26108515  0.63609589  0.12279849     0.40260
H390        H  0.29881096  0.67340741  0.12734411     0.35150
C391        C  0.23805812  0.69847985  0.32586981    -0.26580
C392        C  0.26467734  0.70551217  0.29950622    -0.14650
C393        C  0.27582373  0.68989447  0.31635605     0.35980
C394        C  0.25974764  0.66709885  0.35848670    -0.26030
C395        C  0.23326000  0.66040978  0.38530725    -0.15270
C396        C  0.22295815  0.67714760  0.36948192     0.37060
N397        N  0.19649347  0.67180518  0.39646212    -0.89520
H398        H  0.22856762  0.70940233  0.31232457     0.18180
H399        H  0.26817433  0.65480478  0.37045177     0.18170
N400        N  0.30329225  0.69693698  0.29059104    -0.88540
H401        H  0.18968219  0.68308078  0.37603304     0.35550
H402        H  0.20555807  0.68377429  0.43322015     0.40640
H403        H  0.32135353  0.70575159  0.31933057     0.40260
H404        H  0.29555868  0.67492474  0.27562514     0.35150
C405        C  0.16199779  0.41820572  0.33133518    -0.26580
C406        C  0.18987741  0.43936033  0.29861800    -0.14650
C407        C  0.22005327  0.44940647  0.31553024     0.35980
C408        C  0.22192941  0.43878133  0.36465578    -0.26030
C409        C  0.19431691  0.41820572  0.39796833    -0.15270
C410        C  0.16376014  0.40742675  0.38073433     0.37060
N411        N  0.13394193  0.38492145  0.41109877    -0.89520
H412        H  0.13867762  0.41013760  0.31839699     0.18180
H413        H  0.24538865  0.44708283  0.37738165     0.18170
N414        N  0.24948807  0.47130524  0.28449717    -0.88540
H415        H  0.12685818  0.39757828  0.42377542     0.35550
H416        H  0.13730822  0.37654435  0.44510104     0.40640
H417        H  0.25391999  0.49275894  0.27741928     0.40260
H418        H  0.24595538  0.46009678  0.24810552     0.35150
C419        C  0.21785675  0.45400269  0.10978738    -0.26580
C420        C  0.19658875  0.42038925  0.09826326    -0.14650
C421        C  0.17344369  0.39738975  0.13680784     0.35980
C422        C  0.17135947  0.40857082  0.18557532    -0.26030
C423        C  0.19214494  0.44225185  0.19678021    -0.15270
C424        C  0.21631183  0.46508489  0.15900397     0.37060
N425        N  0.23993266  0.49942884  0.17101566    -0.89520
H426        H  0.23633397  0.47171540  0.08090366     0.18180
H427        H  0.15311172  0.39094309  0.21476252     0.18170
N428        N  0.15209202  0.36281875  0.12609348    -0.88540
H429        H  0.23850187  0.51182426  0.14137459     0.35550
H430        H  0.26336355  0.50727578  0.16896767     0.40640
H431        H  0.13689636  0.35752794  0.09424889     0.40260
H432        H  0.13665441  0.34917211  0.15864592     0.35150
C433        C  0.21380977  0.33880882  0.02646521    -0.26580
C434        C  0.22975817  0.36801098  0.49790350    -0.14650
C435        C  0.25901470  0.38223259  0.46986421     0.35980
C436        C  0.27182303  0.36705431  0.47142307    -0.26030
C437        C  0.25612653  0.33804693  0.50049627    -0.15270
C438        C  0.22646522  0.32354075  0.02769639     0.37060
N439        N  0.20785662  0.29268639  0.05476771    -0.89520
H440        H  0.19108193  0.32757298  0.04740660     0.18180
H441        H  0.29457627  0.37825258  0.45060855     0.18170
N442        N  0.27589593  0.41231739  0.44071802    -0.88540
H443        H  0.22136023  0.29510539  0.08696441     0.35550
H444        H  0.20340418  0.27540088  0.02821430     0.40640
H445        H  0.28404160  0.43073441  0.46822700     0.40260
H446        H  0.29687158  0.41934137  0.42199535     0.35150
C447        C  0.35090161  0.81108411  0.37233199    -0.26580
C448        C  0.32883713  0.81054266  0.40209465    -0.14650
C449        C  0.29667070  0.79298144  0.38259407     0.35980
C450        C  0.28756848  0.77664432  0.33380386    -0.26030
C451        C  0.30947702  0.77705507  0.30362638    -0.15270
C452        C  0.34157659  0.79431123  0.32363025     0.37060
N453        N  0.36503465  0.79470682  0.29673927    -0.89520
H454        H  0.37553653  0.82443960  0.38734953     0.18180
H455        H  0.26323591  0.76421522  0.31868162     0.18170
N456        N  0.27280758  0.79173581  0.41030378    -0.88540
H457        H  0.38406114  0.81860122  0.28297325     0.35550
H458        H  0.35482680  0.77923278  0.26373369     0.40640
H459        H  0.28211811  0.80527477  0.44555084     0.40260
H460        H  0.25327584  0.76729548  0.42108599     0.35150
C461        C  0.31279746  0.81477908  0.13805871    -0.26580
C462        C  0.33072984  0.81260868  0.10165252    -0.14650
C463        C  0.33915711  0.79410112  0.11544118     0.35980
C464        C  0.32855452  0.77739882  0.16457195    -0.26030
C465        C  0.31005206  0.77905724  0.20081803    -0.15270
C466        C  0.30282296  0.79876805  0.18729963     0.37060
N467        N  0.28524056  0.80306968  0.22207347    -0.89520
H468        H  0.30621952  0.82897607  0.12799460     0.18180
H469        H  0.33504616  0.76319844  0.17481582     0.18170
N470        N  0.35879877  0.79269324  0.07988467    -0.88540
H471        H  0.29922378  0.81524301  0.25630872     0.35550
H472        H  0.26263387  0.78016992  0.23189591     0.40640
H473        H  0.38186997  0.81641926  0.07677672     0.40260
H474        H  0.36276463  0.77798450  0.09585858     0.35150
C475        C  0.36802939  0.95117881  0.47035993    -0.26580
C476        C  0.39604042  0.97631568  0.49990541    -0.14650
C477        C  0.41315271  0.96938715  0.02850321     0.35980
C478        C  0.40095063  0.93729869  0.02821804    -0.26030
C479        C  0.37297288  0.91226861  0.49857916    -0.15270
C480        C  0.35626682  0.91928346  0.46944151     0.37060
N481        N  0.32691863  0.89380278  0.44017929    -0.89520
H482        H  0.35473104  0.95630794  0.44886080     0.18180
H483        H  0.41393946  0.93202431  0.05039101     0.18170
N484        N  0.44314847  0.99409404  0.05716823    -0.88540
H485        H  0.31771543  0.90307405  0.42076155     0.35550
H486        H  0.30899908  0.87644842  0.46769501     0.40640
H487        H  0.45171564  0.01748188  0.05073465     0.40260
H488        H  0.46130172  0.99482132  0.04126778     0.35150
C489        C  0.36101588  0.87873253  0.99939574     0.02870
C490        C  0.35447219  0.86280405  0.54816065    -0.13280
C491        C  0.34033301  0.82996673  0.54966449     0.00370
C492        C  0.33303734  0.81320115  0.50143544    -0.11810
C493        C  0.34002262  0.82912855  0.95249678     0.02860
C494        C  0.35432645  0.86190224  0.95166294    -0.11230
H495        H  0.35946256  0.87570337  0.58507187     0.08460
H496        H  0.32072564  0.78745149  0.50185078     0.05980
H497        H  0.35916519  0.87391187  0.91376016     0.05830
C498        C  0.21587953  0.38365945  0.99813088     0.02870
C499        C  0.21059509  0.39236670  0.54647557    -0.13280
C500        C  0.20005097  0.40967666  0.54687959     0.00370
C501        C  0.19436436  0.41793435  0.99830362    -0.11810
C502        C  0.19857398  0.40836163  0.94966925     0.02860
C503        C  0.20934883  0.39128837  0.94999760    -0.11230
H504        H  0.21591995  0.38679668  0.58379058     0.08460
H505        H  0.18685578  0.43188262  0.99832484     0.05980
H506        H  0.21309592  0.38430872  0.91256520     0.05830
C507        C  0.29804810  0.75936489  0.75144690     0.00300
C508        C  0.27751806  0.72587916  0.75019002     0.00300
O509        O  0.20126990  0.63823543  0.96383943    -0.85610
O510        O  0.13788607  0.58807828  0.92990727    -0.82650
C511        C  0.11058028  0.55949612  0.92260993     0.97850
O512        O  0.10134651  0.53638474  0.95372784    -0.82690
O513        O  0.14166115  0.52431308  0.93167911    -0.85330
C514        C  0.16790510  0.52972447  0.92740023     1.02380
O515        O  0.19222970  0.55071146  0.95702824    -0.78100
O516        O  0.21581295  0.61264334  0.93180892    -0.78280
C517        C  0.21595391  0.63573007  0.92881437     1.02330
O518        O  0.17990402  0.61876922  0.57055537    -0.85610
O519        O  0.11556556  0.57407371  0.53659746    -0.82670
C520        C  0.10476466  0.55197833  0.57051074     0.97870
O521        O  0.11210205  0.53463138  0.56652559    -0.82700
O522        O  0.14808028  0.51774135  0.54195019    -0.85300
C523        C  0.17261617  0.53406592  0.57277365     1.02340
O524        O  0.19520284  0.56476729  0.56724250    -0.78120
O525        O  0.22378584  0.62813698  0.54448860    -0.78270
C526        C  0.20991948  0.63364677  0.57630542     1.02310
Cr527      Cr  0.15904138  0.60261499  0.50017378     1.93740
Cr528      Cr  0.12841469  0.53147417  0.49857057     1.93210
Cr529      Cr  0.20384364  0.58803468  0.49992039     1.39100
O530        O  0.16378363  0.57386219  0.49931488    -1.23360
C531        C  0.18777775  0.45256287  0.74849020     0.00300
C532        C  0.18081549  0.47231029  0.75052984     0.00300
C533        C  0.02630334  0.53220435  0.74834017     0.00300
C534        C  0.00003684  0.53020180  0.74801493     0.00300
C535        C  0.89881299  0.51235737  0.49906219     0.02870
C536        C  0.91437077  0.51672204  0.54702111    -0.13280
C537        C  0.94451305  0.52443133  0.54656362     0.00370
C538        C  0.95940754  0.52847565  0.49769916    -0.11810
C539        C  0.94422283  0.52462645  0.94937687     0.02860
C540        C  0.91380710  0.51642758  0.95047148    -0.11230
H541        H  0.90235513  0.51272774  0.58459753     0.08460
H542        H  0.98231879  0.53367341  0.49736802     0.05980
H543        H  0.90144624  0.51265215  0.91350310     0.05830
C544        C  0.76843429  0.46634244  0.00002377     0.02870
C545        C  0.75145122  0.45891326  0.95227095    -0.13280
C546        C  0.71849519  0.44449573  0.95304117     0.00370
C547        C  0.70239486  0.43697150  0.00224756    -0.11810
C548        C  0.71929288  0.44431750  0.55042746     0.02860
C549        C  0.75254249  0.45962478  0.54883874    -0.11230
H550        H  0.76372455  0.46392212  0.91452665     0.08460
H551        H  0.67673504  0.42518526  0.00301374     0.05980
H552        H  0.76575536  0.46525502  0.58567454     0.05830
C553        C  0.27171230  0.32402681  0.00164396     0.02870
C554        C  0.28025909  0.31814919  0.95372802    -0.13280
C555        C  0.29872091  0.30891201  0.95398691     0.00370
C556        C  0.30798206  0.30466646  0.00289700    -0.11810
C557        C  0.29933903  0.31019077  0.55136025     0.02860
C558        C  0.28138432  0.32007582  0.55015529    -0.11230
H559        H  0.27352384  0.32190991  0.91604710     0.08460
H560        H  0.32239656  0.29767243  0.00313736     0.05980
H561        H  0.27570781  0.32555404  0.58708832     0.05830
C562        C  0.64984851  0.40874002  0.75125368     0.00300
C563        C  0.61631409  0.38859899  0.74764785     0.00300
C564        C  0.34030995  0.29433889  0.75218126     0.00300
C565        C  0.36454109  0.29311792  0.75126241     0.00300
O566        O  0.52876693  0.30948488  0.53707664    -0.85610
O567        O  0.47809426  0.24535806  0.56855326    -0.82650
C568        C  0.44931005  0.21791009  0.57437890     0.97850
O569        O  0.42645106  0.20933879  0.54335163    -0.82690
O570        O  0.41446576  0.24943138  0.56869386    -0.85330
C571        C  0.42064815  0.27590305  0.57542077     1.02380
O572        O  0.44090908  0.30023614  0.54516935    -0.78100
O573        O  0.50331567  0.32453422  0.56767474    -0.78280
C574        C  0.52726237  0.32591196  0.56967732     1.02330
O575        O  0.51002138  0.28979799  0.92944085    -0.85610
O576        O  0.46508167  0.22522370  0.96060023    -0.82670
C577        C  0.44286683  0.21454364  0.92693570     0.97870
O578        O  0.42472437  0.22096324  0.93176141    -0.82700
O579        O  0.40748116  0.25673713  0.95866410    -0.85300
C580        C  0.42377623  0.28170166  0.92873880     1.02340
O581        O  0.45453178  0.30400213  0.93408664    -0.78120
O582        O  0.51821088  0.33291127  0.95542083    -0.78270
C583        C  0.52407976  0.31950488  0.92340710     1.02310
Cr584      Cr  0.49321343  0.26783911  0.99910020     1.93740
Cr585      Cr  0.42155764  0.23684368  0.00054719     1.93210
Cr586      Cr  0.47807501  0.31225765  0.00068299     1.39100
O587        O  0.46415542  0.27233810  0.00035217    -1.23360
C588        C  0.42847319  0.13834959  0.75031258     0.00300
C589        C  0.42381855  0.11060375  0.75145052     0.00300
C590        C  0.40558137  0.00880457  0.00101135     0.02870
C591        C  0.40820931  0.02313620  0.54954682    -0.13280
C592        C  0.41524426  0.05287649  0.55034664     0.00370
C593        C  0.41816190  0.06760412  0.00189647    -0.11810
C594        C  0.41469905  0.05297677  0.95300611     0.02860
C595        C  0.40920466  0.02407829  0.95302315    -0.11230
H596        H  0.40454057  0.01103489  0.58677599     0.08460
H597        H  0.42276637  0.09014307  0.00226356     0.05980
H598        H  0.40728029  0.01314261  0.91545617     0.05830
C599        C  0.44668308  0.09793932  0.88574613    -0.26580
C600        C  0.41663945  0.06757615  0.90157900    -0.14650
C601        C  0.38913881  0.05113105  0.86724807     0.35980
C602        C  0.39214250  0.06548528  0.81860833    -0.26030
C603        C  0.42207638  0.09599615  0.80305735    -0.15270
C604        C  0.44972244  0.11203036  0.83655817     0.37060
N605        N  0.48112713  0.14212799  0.82009885    -0.89520
H606        H  0.46804759  0.11046588  0.91124503     0.18180
H607        H  0.37083613  0.05287835  0.79294649     0.18170
N608        N  0.35766252  0.02025494  0.88134133    -0.88540
H609        H  0.49741973  0.13828947  0.81810853     0.35550
H610        H  0.48967953  0.15966413  0.84968089     0.40640
H611        H  0.35064435  0.02281989  0.91817038     0.40260
H612        H  0.35968377  0.00270316  0.88500296     0.35150
C613        C  0.39276235  0.06668427  0.61721288    -0.26580
C614        C  0.41806016  0.06761279  0.60216331    -0.14650
C615        C  0.44430228  0.08077380  0.63816030     0.35980
C616        C  0.44498926  0.09361439  0.68716115    -0.26030
C617        C  0.42044318  0.09404784  0.70102711    -0.15270
C618        C  0.39348882  0.07929567  0.66648246     0.37060
N619        N  0.36624781  0.07603629  0.68203089    -0.89520
H620        H  0.37200116  0.05559029  0.59084658     0.18180
H621        H  0.46546438  0.10430441  0.71399121     0.18170
N622        N  0.47114115  0.08255099  0.62591462    -0.88540
H623        H  0.34535099  0.05099313  0.68375945     0.35550
H624        H  0.36231353  0.08628131  0.65200253     0.40640
H625        H  0.46947137  0.07432547  0.58747419     0.40260
H626        H  0.46984302  0.06697018  0.65231218     0.35150
C627        C  0.46209227  0.18493648  0.81250603    -0.26580
C628        C  0.43095609  0.15511286  0.79931155    -0.14650
C629        C  0.40305706  0.14480655  0.82800064     0.35980
C630        C  0.40731264  0.16480121  0.86906407    -0.26030
C631        C  0.43871365  0.19439698  0.88258195    -0.15270
C632        C  0.46645508  0.20429825  0.85440562     0.37060
N633        N  0.49894456  0.23459024  0.86708316    -0.89520
H634        H  0.48334914  0.19322933  0.79000760     0.18180
H635        H  0.38600197  0.15696931  0.89097703     0.18170
N636        N  0.37024242  0.11470083  0.81637985    -0.88540
H637        H  0.51604551  0.23985353  0.83896619     0.35550
H638        H  0.50583585  0.23124552  0.90320674     0.40640
H639        H  0.36994935  0.10166665  0.78574746     0.40260
H640        H  0.35686687  0.12081738  0.80285624     0.35150
C641        C  0.46880592  0.19808672  0.63471838    -0.26580
C642        C  0.44269060  0.19515739  0.61634612    -0.14650
C643        C  0.41102884  0.17087829  0.63876657     0.35980
C644        C  0.40692498  0.15203997  0.68161913    -0.26030
C645        C  0.43299783  0.15509733  0.69995220    -0.15270
C646        C  0.46416633  0.17791996  0.67569381     0.37060
N647        N  0.49135437  0.18174013  0.69453779    -0.89520
H648        H  0.49299487  0.21621626  0.61703691     0.18180
H649        H  0.38332111  0.13522033  0.70154520     0.18170
N650        N  0.38324664  0.16565004  0.61872937    -0.88540
H651        H  0.51292971  0.20070731  0.67410684     0.35550
H652        H  0.48646430  0.16028450  0.68536181     0.40640
H653        H  0.38740352  0.18685097  0.62626796     0.40260
H654        H  0.36181116  0.14662924  0.63937338     0.35150
C655        C  0.37110418  0.25973094  0.69919180    -0.26580
C656        C  0.37574411  0.28815289  0.70153177    -0.14650
C657        C  0.39386740  0.31186369  0.66044928     0.35980
C658        C  0.40698810  0.30648981  0.61901701    -0.26030
C659        C  0.40384564  0.27880901  0.61827753    -0.15270
C660        C  0.38543252  0.25508160  0.65906266     0.37060
N661        N  0.38241129  0.22701091  0.66128094    -0.89520
H662        H  0.35728027  0.24155817  0.73055418     0.18180
H663        H  0.42102910  0.32503038  0.58823270     0.18170
N664        N  0.40187196  0.34272627  0.66131276    -0.88540
H665        H  0.36691266  0.21133044  0.69247083     0.35550
H666        H  0.40569989  0.23563726  0.67041332     0.40640
H667        H  0.39438994  0.34610536  0.69655159     0.40260
H668        H  0.38938026  0.34272501  0.62983483     0.35150
C669        C  0.35894912  0.26494260  0.83478233    -0.26580
C670        C  0.37882170  0.29233749  0.80108792    -0.14650
C671        C  0.41276841  0.31708040  0.81213890     0.35980
C672        C  0.42626915  0.31339535  0.85484851    -0.26030
C673        C  0.40694834  0.28524491  0.88718612    -0.15270
C674        C  0.37252434  0.26114448  0.87801172     0.37060
N675        N  0.35150562  0.23267501  0.91163885    -0.89520
H676        H  0.33289991  0.24601053  0.82626239     0.18180
H677        H  0.45249113  0.33254906  0.86168264     0.18170
N678        N  0.43435226  0.34626864  0.78060448    -0.88540
H679        H  0.32725041  0.21687450  0.89784760     0.35550
H680        H  0.35119014  0.24070198  0.94921541     0.40640
H681        H  0.42490219  0.35764488  0.77874952     0.40260
H682        H  0.43576865  0.33994339  0.74229783     0.35150
C683        C  0.54603538  0.32093468  0.83627682    -0.26580
C684        C  0.54814543  0.33851610  0.87937220    -0.14650
C685        C  0.57376436  0.37315279  0.88021837     0.35980
C686        C  0.59656751  0.38912336  0.83792218    -0.26030
C687        C  0.59413913  0.37128351  0.79484208    -0.15270
C688        C  0.56875043  0.33672074  0.79449140     0.37060
N689        N  0.56621944  0.31764124  0.75176231    -0.89520
H690        H  0.52638916  0.29453058  0.83498128     0.18180
H691        H  0.61580793  0.41564545  0.83781221     0.18170
N692        N  0.57694815  0.39199511  0.92402712    -0.88540
H693        H  0.54601123  0.29261129  0.75726913     0.35550
H694        H  0.58715415  0.32057729  0.75284754     0.40640
H695        H  0.55740279  0.39127537  0.92161515     0.40260
H696        H  0.59840363  0.41669876  0.92012207     0.35150
C697        C  0.60179914  0.36323082  0.65730840    -0.26580
C698        C  0.59895726  0.37987823  0.69545902    -0.14650
C699        C  0.57487173  0.38216720  0.68806653     0.35980
C700        C  0.55233474  0.36507627  0.64617266    -0.26030
C701        C  0.55390139  0.34670511  0.60979199    -0.15270
C702        C  0.58030274  0.34748150  0.61380793     0.37060
N703        N  0.58469655  0.33137314  0.57501003    -0.89520
H704        H  0.61955520  0.36065898  0.66317383     0.18180
H705        H  0.53314287  0.36587139  0.64265388     0.18170
N706        N  0.57229495  0.40126643  0.72258737    -0.88540
H707        H  0.60434264  0.33314497  0.58536810     0.35550
H708        H  0.59139393  0.34419149  0.53913458     0.40640
H709        H  0.59253977  0.41620851  0.74788277     0.40260
H710        H  0.55126417  0.38497813  0.74611882     0.35150
C711        C  0.30317474  0.27704798  0.61286294    -0.26580
C712        C  0.30925817  0.30593963  0.60330841    -0.14650
C713        C  0.32416156  0.33007012  0.64368028     0.35980
C714        C  0.33212182  0.32452801  0.69267151    -0.26030
C715        C  0.32706576  0.29617788  0.70163589    -0.15270
C716        C  0.31177188  0.27180064  0.66157269     0.37060
N717        N  0.30521216  0.24197056  0.67014836    -0.89520
H718        H  0.29134744  0.25832265  0.58226889     0.18180
H719        H  0.34404527  0.34331289  0.72319268     0.18170
N720        N  0.33225882  0.36063126  0.63418236    -0.88540
H721        H  0.29486865  0.22717964  0.63613954     0.35550
H722        H  0.28760873  0.22877779  0.70024851     0.40640
H723        H  0.34989244  0.37289392  0.60382798     0.40260
H724        H  0.34317704  0.37570880  0.66782943     0.35150
C725        C  0.28607800  0.28124345  0.86639813    -0.26580
C726        C  0.30962426  0.30541415  0.90274316    -0.14650
C727        C  0.34321110  0.32691658  0.88899943     0.35980
C728        C  0.35260228  0.32346602  0.83941758    -0.26030
C729        C  0.32924150  0.29821793  0.80385783    -0.15270
C730        C  0.29553004  0.27710029  0.81747226     0.37060
N731        N  0.27104150  0.25099447  0.78224551    -0.89520
H732        H  0.26024585  0.26502790  0.87690477     0.18180
H733        H  0.37832514  0.34064418  0.82843277     0.18170
N734        N  0.36759222  0.35243691  0.92520235    -0.88540
H735        H  0.24741995  0.23882526  0.79678690     0.35550
H736        H  0.27370806  0.23383291  0.78286476     0.40640
H737        H  0.36376605  0.36865090  0.92911223     0.40260
H738        H  0.39120700  0.36597723  0.90935919     0.35150
C739        C  0.68915617  0.44965890  0.61647130    -0.26580
C740        C  0.70227564  0.43557992  0.60261220    -0.14650
C741        C  0.69982629  0.41442706  0.63957693     0.35980
C742        C  0.68485865  0.40847957  0.68916511    -0.26030
C743        C  0.67066607  0.42153848  0.70216764    -0.15270
C744        C  0.67365286  0.44318556  0.66583033     0.37060
N745        N  0.66127222  0.45889877  0.67748040    -0.89520
H746        H  0.69128324  0.46616713  0.58878794     0.18180
H747        H  0.68239598  0.39168055  0.71662304     0.18170
N748        N  0.71093216  0.39749960  0.62776154    -0.88540
H749        H  0.68126360  0.48424410  0.67679117     0.35550
H750        H  0.65170602  0.45348031  0.71601257     0.40640
H751        H  0.71902037  0.40121067  0.58852241     0.40260
H752        H  0.69057955  0.37231846  0.63076796     0.35150
C753        C  0.67763161  0.40289654  0.88678651    -0.26580
C754        C  0.70065355  0.43599206  0.90208058    -0.14650
C755        C  0.70742880  0.46019596  0.86708392     0.35980
C756        C  0.69054606  0.45048327  0.81840293    -0.26030
C757        C  0.66710096  0.41732485  0.80351400    -0.15270
C758        C  0.66132125  0.39345441  0.83757636     0.37060
N759        N  0.63975689  0.35976003  0.82166492    -0.89520
H760        H  0.67293235  0.38431627  0.91265758     0.18180
H761        H  0.69563074  0.46906739  0.79201724     0.18170
N762        N  0.73110638  0.49468698  0.87934226    -0.88540
H763        H  0.62153439  0.34574431  0.85084064     0.35550
H764        H  0.65331761  0.35262607  0.82077474     0.40640
H765        H  0.74172726  0.49922641  0.91672196     0.40260
H766        H  0.71850523  0.50286526  0.88129067     0.35150
C767        C  0.86166835  0.52330396  0.50103244    -0.26580
C768        C  0.86537956  0.50037477  0.49955169    -0.14650
C769        C  0.83714536  0.46625768  0.99803709     0.35980
C770        C  0.80594295  0.45617707  0.99794100    -0.26030
C771        C  0.80216469  0.47903921  0.99909756    -0.15270
C772        C  0.83037690  0.51317897  0.50090792     0.37060
N773        N  0.82827062  0.53794533  0.50207131    -0.89520
H774        H  0.88329868  0.54930477  0.50216094     0.18180
H775        H  0.78433922  0.43015077  0.99717804     0.18170
N776        N  0.83909151  0.44135674  0.99717335    -0.88540
H777        H  0.83801436  0.55032168  0.53840831     0.35550
H778        H  0.80394193  0.52773555  0.50088701     0.40640
H779        H  0.86332114  0.45131028  0.99845295     0.40260
H780        H  0.82927950  0.42887592  0.96092904     0.35150
C781        C  0.00432400  0.55553940  0.83484220    -0.26580
C782        C  0.98515546  0.52916585  0.79887744    -0.14650
C783        C  0.95210102  0.50176831  0.81225591     0.35980
C784        C  0.93939625  0.50089349  0.86129741    -0.26030
C785        C  0.95877521  0.52691894  0.89765016    -0.15270
C786        C  0.99145268  0.55458842  0.88399216     0.37060
N787        N  0.01139653  0.58204294  0.91942806    -0.89520
H788        H  0.02934505  0.57713619  0.82451016     0.18180
H789        H  0.91423368  0.47944155  0.87143239     0.18170
N790        N  0.93113870  0.47397396  0.77770997    -0.88540
H791        H  0.03240910  0.58590245  0.92848860     0.35550
H792        H  0.01888256  0.60278367  0.89928083     0.40640
H793        H  0.94270408  0.46519917  0.76849880     0.40260
H794        H  0.92747164  0.48140228  0.74267170     0.35150
C795        C  0.97088520  0.55122384  0.63357989    -0.26580
C796        C  0.95918182  0.52603813  0.59734021    -0.14650
C797        C  0.96048690  0.50195921  0.61053370     0.35980
C798        C  0.97347217  0.50353986  0.66001619    -0.26030
C799        C  0.98541156  0.52885157  0.69646455    -0.15270
C800        C  0.98413405  0.55302076  0.68264830     0.37060
N801        N  0.99689819  0.58017026  0.71685508    -0.89520
H802        H  0.96991160  0.56977142  0.62343777     0.18180
H803        H  0.97402611  0.48477888  0.67049147     0.18170
N804        N  0.94829379  0.47584551  0.57381713    -0.88540
H805        H  0.98302567  0.57127125  0.75187313     0.35550
H806        H  0.02132438  0.59228232  0.72605978     0.40640
H807        H  0.92297914  0.46172848  0.56970402     0.40260
H808        H  0.95128457  0.46029587  0.58935753     0.35150
C809        C  0.20070589  0.50069518  0.83863608    -0.26160
C810        C  0.17492690  0.48125267  0.80195925    -0.14650
C811        C  0.14521249  0.47398865  0.81108076     0.35980
C812        C  0.14312384  0.48906992  0.85362825    -0.26030
C813        C  0.17004018  0.51114346  0.88756407    -0.15270
C814        C  0.19850182  0.51542337  0.88180829     0.37060
N815        N  0.22538688  0.53524313  0.91874349    -0.89520
H816        H  0.22332029  0.50582077  0.83188267     0.18180
H817        H  0.12064699  0.48439182  0.85892865     0.18170
N818        N  0.11731685  0.45150396  0.77693534    -0.88540
H819        H  0.24470011  0.53662758  0.90753844     0.35550
H820        H  0.21695904  0.52321482  0.95556433     0.40640
H821        H  0.12185350  0.46364584  0.74117380     0.40260
H822        H  0.09634628  0.44571544  0.79310508     0.35150
C823        C  0.19699906  0.53642362  0.65775548    -0.26580
C824        C  0.17504214  0.51723170  0.61585050    -0.14650
C825        C  0.15626716  0.48279976  0.61666938     0.35980
C826        C  0.15899247  0.46862567  0.65990534    -0.26030
C827        C  0.18037555  0.48792703  0.70230370    -0.15270
C828        C  0.19991243  0.52222324  0.70047361     0.37060
N829        N  0.22325142  0.54292390  0.74167769    -0.89520
H830        H  0.21193992  0.56277517  0.65789645     0.18180
H831        H  0.14369035  0.44223443  0.66101281     0.18170
N832        N  0.13451789  0.46151907  0.57431004    -0.88540
H833        H  0.24657038  0.55984430  0.72429372     0.35550
H834        H  0.21737348  0.55590892  0.75844109     0.40640
H835        H  0.14776308  0.47013216  0.53856286     0.40260
H836        H  0.11548789  0.46155816  0.57193130     0.35150
C837        C  0.07588963  0.57069020  0.80336000    -0.26580
C838        C  0.04513559  0.53898883  0.79737781    -0.14650
C839        C  0.03545275  0.51409090  0.83308852     0.35980
C840        C  0.05719293  0.52143464  0.87368909    -0.26030
C841        C  0.08852819  0.55309242  0.87901124    -0.15270
C842        C  0.09786901  0.57804792  0.84311258     0.37060
N843        N  0.12977011  0.61061027  0.84606611    -0.89520
H844        H  0.08325401  0.58964994  0.77540856     0.18180
H845        H  0.04966232  0.50213941  0.90093573     0.18170
N846        N  0.00429414  0.48126511  0.82679479    -0.88540
H847        H  0.13185318  0.62623012  0.81853650     0.35550
H848        H  0.14711427  0.60910304  0.83466474     0.40640
H849        H  0.98595007  0.48163025  0.83600264     0.40260
H850        H  0.00183105  0.46547165  0.85442300     0.35150
C851        C  0.06426232  0.51687109  0.64294276    -0.26580
C852        C  0.08302551  0.54629778  0.61384106    -0.14650
C853        C  0.08108591  0.57012077  0.62710262     0.35980
C854        C  0.06038044  0.56376989  0.66867310    -0.26030
C855        C  0.04251682  0.53483849  0.69846563    -0.15270
C856        C  0.04419435  0.51101293  0.68538799     0.37060
N857        N  0.02605422  0.48130324  0.71603488    -0.89520
H858        H  0.06553031  0.49851441  0.63300824     0.18180
H859        H  0.05951284  0.58226063  0.67994246     0.18170
N860        N  0.10105031  0.60122306  0.59998875    -0.88540
H861        H  0.03028548  0.46649697  0.70173150     0.35550
H862        H  0.00101899  0.46810278  0.71061761     0.40640
H863        H  0.12557016  0.61409289  0.60993973     0.40260
H864        H  0.09591978  0.61538986  0.61376420     0.35150
C865        C  0.21561049  0.67111343  0.64154964    -0.26580
C866        C  0.22908616  0.65905542  0.61833230    -0.14650
C867        C  0.26054034  0.67207167  0.63485827     0.35980
C868        C  0.27696215  0.69577436  0.67548995    -0.26030
C869        C  0.26281904  0.70682478  0.69987694    -0.15270
C870        C  0.23215302  0.69506209  0.68128458     0.37060
N871        N  0.21661564  0.70619365  0.70224143    -0.89520
H872        H  0.19188392  0.66201794  0.62856924     0.18180
H873        H  0.30052441  0.70492269  0.68934850     0.18170
N874        N  0.27536690  0.66066218  0.61165378    -0.88540
H875        H  0.21345001  0.71624551  0.67061571     0.35550
H876        H  0.23187982  0.72534974  0.72905771     0.40640
H877        H  0.26111987  0.63610928  0.62282547     0.40260
H878        H  0.29884355  0.67342189  0.62738598     0.35150
C879        C  0.23805498  0.69848860  0.82587670    -0.26580
C880        C  0.26467459  0.70551561  0.79952369    -0.14650
C881        C  0.27580950  0.68988817  0.81638004     0.35980
C882        C  0.25972195  0.66708854  0.85850421    -0.26030
C883        C  0.23323287  0.66040326  0.88531189    -0.15270
C884        C  0.22294246  0.67715068  0.86948165     0.37060
N885        N  0.19647605  0.67181148  0.89644774    -0.89520
H886        H  0.22857235  0.70941783  0.81232638     0.18180
H887        H  0.26814045  0.65478747  0.87047341     0.18170
N888        N  0.30327790  0.69692447  0.79062772    -0.88540
H889        H  0.18967479  0.68309551  0.87601629     0.35550
H890        H  0.20553439  0.68377371  0.93321190     0.40640
H891        H  0.32133314  0.70573159  0.81937532     0.40260
H892        H  0.29554034  0.67491100  0.77565952     0.35150
C893        C  0.16199652  0.41819792  0.83134773    -0.26580
C894        C  0.18987656  0.43935810  0.79863372    -0.14650
C895        C  0.22005334  0.44940490  0.81554201     0.35980
C896        C  0.22192978  0.43877425  0.86466055    -0.26030
C897        C  0.19431681  0.41819296  0.89796991    -0.15270
C898        C  0.16375933  0.40741373  0.88074019     0.37060
N899        N  0.13394109  0.38490338  0.91110251    -0.89520
H900        H  0.13867567  0.41012908  0.81841206     0.18180
H901        H  0.24538976  0.44707677  0.87738440     0.18170
N902        N  0.24948882  0.47131013  0.78451278    -0.88540
H903        H  0.12685594  0.39755739  0.92378945     0.35550
H904        H  0.13730798  0.37652247  0.94509840     0.40640
H905        H  0.25391804  0.49276324  0.77744546     0.40260
H906        H  0.24595895  0.46010720  0.74811624     0.35150
C907        C  0.21785555  0.45401078  0.60980160    -0.26580
C908        C  0.19658367  0.42039821  0.59826783    -0.14650
C909        C  0.17343634  0.39739652  0.63680851     0.35980
C910        C  0.17135446  0.40857453  0.68558201    -0.26030
C911        C  0.19214409  0.44225465  0.69679702    -0.15270
C912        C  0.21631243  0.46508979  0.65902394     0.37060
N913        N  0.23993565  0.49943254  0.67104388    -0.89520
H914        H  0.23633446  0.47172506  0.58092115     0.18180
H915        H  0.15310483  0.39094516  0.71476579     0.18170
N916        N  0.15208004  0.36282622  0.62608418    -0.88540
H917        H  0.23850698  0.51183201  0.64140824     0.35550
H918        H  0.26336549  0.50727718  0.66899302     0.40640
H919        H  0.13688594  0.35754151  0.59424131     0.40260
H920        H  0.13664121  0.34917762  0.65863455     0.35150
C921        C  0.21379039  0.33880757  0.52646594    -0.26580
C922        C  0.22977281  0.36801030  0.99789984    -0.14650
C923        C  0.25902927  0.38223468  0.96985767     0.35980
C924        C  0.27184252  0.36706122  0.97141743    -0.26030
C925        C  0.25615085  0.33805602  0.00049407    -0.15270
C926        C  0.22644105  0.32353476  0.52769642     0.37060
N927        N  0.20782799  0.29267909  0.55476501    -0.89520
H928        H  0.19106257  0.32757394  0.54740541     0.18180
H929        H  0.29459572  0.37826153  0.95060085     0.18170
N930        N  0.27590539  0.41231734  0.94070770    -0.88540
H931        H  0.22132991  0.29509457  0.58696127     0.35550
H932        H  0.20337293  0.27539297  0.52820982     0.40640
H933        H  0.28404970  0.43073490  0.96821447     0.40260
H934        H  0.29688161  0.41934365  0.92198318     0.35150
C935        C  0.35090501  0.81108694  0.87234033    -0.26580
C936        C  0.32884275  0.81055092  0.90209796    -0.14650
C937        C  0.29667775  0.79299381  0.88259463     0.35980
C938        C  0.28757461  0.77665504  0.83380624    -0.26030
C939        C  0.30948106  0.77706071  0.80363331    -0.15270
C940        C  0.34157911  0.79431266  0.82364022     0.37060
N941        N  0.36503453  0.79470246  0.79675411    -0.89520
H942        H  0.37553869  0.82443907  0.88736072     0.18180
H943        H  0.26324303  0.76422844  0.81868243     0.18170
N944        N  0.27281698  0.79175351  0.91030017    -0.88540
H945        H  0.38406423  0.81859601  0.78298813     0.35550
H946        H  0.35482598  0.77922814  0.76374887     0.40640
H947        H  0.28212809  0.80529305  0.94554665     0.40260
H948        H  0.25328255  0.76731405  0.92108302     0.35150
C949        C  0.31279150  0.81477167  0.63805560    -0.26580
C950        C  0.33072589  0.81260276  0.60165190    -0.14650
C951        C  0.33915787  0.79409993  0.61544604     0.35980
C952        C  0.32855871  0.77740146  0.66458060    -0.26030
C953        C  0.31005409  0.77905824  0.70082454    -0.15270
C954        C  0.30281977  0.79876406  0.68729947     0.37060
N955        N  0.28523519  0.80306454  0.72206962    -0.89520
H956        H  0.30621021  0.82896532  0.62798743     0.18180
H957        H  0.33505439  0.76320507  0.67482856     0.18170
N958        N  0.35880085  0.79269306  0.57989125    -0.88540
H959        H  0.29921881  0.81524177  0.75630313     0.35550
H960        H  0.26263005  0.78016441  0.73189527     0.40640
H961        H  0.38187047  0.81642011  0.57677918     0.40260
H962        H  0.36277032  0.77798796  0.59586910     0.35150
C963        C  0.36803180  0.95118363  0.97035997    -0.26580
C964        C  0.39604309  0.97632139  0.99990380    -0.14650
C965        C  0.41314884  0.96937990  0.52850448     0.35980
C966        C  0.40094591  0.93729104  0.52821736    -0.26030
C967        C  0.37297730  0.91227538  0.99858150    -0.15270
C968        C  0.35627001  0.91928869  0.96944360     0.37060
N969        N  0.32692143  0.89380686  0.94018320    -0.89520
H970        H  0.35473254  0.95631170  0.94886088     0.18180
H971        H  0.41393391  0.93201566  0.55039028     0.18170
N972        N  0.44314436  0.99408562  0.55717096    -0.88540
H973        H  0.31771733  0.90307712  0.92076502     0.35550
H974        H  0.30900260  0.87645297  0.96770013     0.40640
H975        H  0.45171238  0.01747390  0.55073871     0.40260
H976        H  0.46129738  0.99481252  0.54127060     0.35150
loop_ 
_geom_bond_atom_site_label_1 
_geom_bond_atom_site_label_2 
_geom_bond_distance 
_geom_bond_site_symmetry_2 
_ccdc_geom_bond_type 
C1            C6   1.403       .  A
C1          C490   1.403       .  A
C1          C479   1.483       .  S
C2            C3   1.406       .  A
C2          C489   1.403   1_554  A
C2            H7   1.084       .  S
C3            C4   1.407       .  A
C3          C462   1.488       .  S
C4          C493   1.403   1_554  A
C4            H8   1.084       .  S
C5            C6   1.400       .  A
C5          C492   1.404       .  A
C5          C448   1.476       .  S
C6            H9   1.084       .  S
C10          C15   1.401       .  A
C10         C499   1.402       .  A
C10         C434   1.479       .  S
C11          C12   1.403       .  A
C11         C498   1.402   1_554  A
C11          H16   1.084       .  S
C12         C501   1.407   1_554  A
C12         C420   1.481       .  S
C13          C14   1.407       .  A
C13         C500   1.407       .  A
C13          H17   1.084       .  S
C14          C15   1.401       .  A
C14         C409   1.483       .  S
C15          H18   1.084       .  S
C19          C20   1.369       .  D
C19         C451   1.496       .  S
C19         C465   1.504       .  S
C20         C381   1.487       .  S
C20         C392   1.491       .  S
O21          C29   1.258       .  A
O21        Cr527   1.986       .  S
O22          C23   1.260       .  A
O22        Cr527   1.963       .  S
C23         C353   1.488       .  S
C23          O24   1.270       .  A
O24        Cr528   2.017       .  S
O25          C26   1.261       .  A
O25        Cr528   1.969       .  S
C26         C325   1.487       .  S
C26          O27   1.265       .  A
O27        Cr529   2.003       .  S
O28          C29   1.263       .  A
O28        Cr529   1.997       .  S
C29         C395   1.484       .  S
O30          C38   1.261       .  A
O30         Cr39   1.964       .  S
O31          C32   1.258       .  A
O31         Cr39   1.989       .  S
C32         C364   1.482       .  S
C32          O33   1.260       .  A
O33         Cr40   1.985   1_554  S
O34          C35   1.263       .  A
O34         Cr40   2.000   1_554  S
C35         C336   1.485       .  S
C35          O36   1.263       .  A
O36         Cr41   1.974   1_554  S
O37          C38   1.269       .  A
O37         Cr41   2.017   1_554  S
C38         C378   1.483       .  S
Cr39        O509   1.986   1_554  S
Cr39        O510   1.963   1_554  S
Cr39         O42   1.761   1_554  S
Cr40        O512   2.017       .  S
Cr40        O513   1.969       .  S
Cr40         O42   1.768       .  S
Cr41        O515   2.003       .  S
Cr41        O516   1.997       .  S
Cr41         O42   1.769       .  S
C43          C44   1.369       .  D
C43         C406   1.495       .  S
C43         C423   1.496       .  S
C44         C322   1.490       .  S
C44         C339   1.492       .  S
C45          C46   1.366       .  D
C45         C350   1.485       .  S
C45         C367   1.483       .  S
C46         C294   1.494   1_455  S
C46         C311   1.498   1_455  S
C47          C48   1.400   1_556  A
C47         C540   1.400       .  A
C47         C280   1.473       .  S
C48          C49   1.402       .  A
C48          H53   1.084       .  S
C49          C50   1.405   1_554  A
C49         C308   1.478       .  S
C50         C539   1.406       .  A
C50          H54   1.084       .  S
C51          C52   1.404       .  A
C51         C538   1.406       .  A
C51         C297   1.483       .  S
C52         C535   1.400       .  A
C52          H55   1.084       .  S
C56          C57   1.401       .  A
C56         C549   1.400       .  A
C56         C283   1.474       .  S
C57          C58   1.403       .  A
C57          H62   1.084       .  S
C58          C59   1.408       .  A
C58         C266   1.483       .  S
C59         C548   1.409       .  A
C59          H63   1.084       .  S
C60          C61   1.404       .  A
C60         C547   1.409       .  A
C60         C252   1.487       .  S
C61         C544   1.400       .  A
C61          H64   1.084       .  S
C65          C66   1.403       .  A
C65         C558   1.402       .  A
C65         C437   1.482       .  S
C66          C67   1.401       .  A
C66          H71   1.084       .  S
C67          C68   1.406       .  A
C67         C238   1.483       .  S
C68         C557   1.408       .  A
C68          H72   1.084       .  S
C69          C70   1.405       .  A
C69         C556   1.408       .  A
C69         C224   1.490       .  S
C70         C553   1.402       .  A
C70          H73   1.082       .  S
C74          C75   1.372       .  D
C74         C255   1.495       .  S
C74         C269   1.497       .  S
C75         C199   1.494       .  S
C75         C210   1.497       .  S
C76          C77   1.372       .  D
C76         C227   1.498       .  S
C76         C241   1.505       .  S
C77         C168   1.493       .  S
C77         C182   1.491       .  S
O78          C86   1.260       .  A
O78        Cr584   1.990   1_554  S
O79          C80   1.262       .  A
O79        Cr584   1.969   1_554  S
C80         C154   1.481       .  S
C80          O81   1.268       .  A
O81        Cr585   2.011       .  S
O82          C83   1.262       .  A
O82        Cr585   1.977       .  S
C83         C171   1.490       .  S
C83          O84   1.266       .  A
O84        Cr586   2.005       .  S
O85          C86   1.262       .  A
O85        Cr586   1.987       .  S
C86         C213   1.489       .  S
O87          C95   1.261       .  A
O87         Cr96   1.966       .  S
O88          C89   1.259       .  A
O88         Cr96   1.988       .  S
C89         C143   1.475       .  S
C89          O90   1.262       .  A
O90         Cr97   1.992       .  S
O91          C92   1.264       .  A
O91         Cr97   2.004       .  S
C92         C185   1.489       .  S
C92          O93   1.261       .  A
O93         Cr98   1.971       .  S
O94          C95   1.267       .  A
O94         Cr98   2.015       .  S
C95         C196   1.484       .  S
Cr96        O566   1.990       .  S
Cr96        O567   1.969       .  S
Cr96         O99   1.765       .  S
Cr97        O569   2.011       .  S
Cr97        O570   1.977       .  S
Cr97         O99   1.774       .  S
Cr98        O572   2.005       .  S
Cr98        O573   1.987       .  S
Cr98         O99   1.772       .  S
C100        C101   1.365       .  D
C100        C140   1.486       .  S
C100        C157   1.483       .  S
C101        C115   1.492       .  S
C101        C129   1.495       .  S
C102        C107   1.403       .  A
C102        C591   1.404       .  A
C102        C476   1.484   1_545  S
C103        C104   1.403       .  A
C103        C590   1.404       .  A
C103        H108   1.084       .  S
C104        C593   1.408       .  A
C104        C126   1.484       .  S
C105        C106   1.408       .  A
C105        C592   1.408       .  A
C105        H109   1.084       .  S
C106        C107   1.401       .  A
C106        C112   1.485       .  S
C107        H110   1.084       .  S
C111        C112   1.402       .  A
C111        C116   1.406       .  A
C111        H118   1.084       .  S
C112        C113   1.416       .  A
C113        C114   1.401       .  A
C113        N120   1.433       .  S
C114        C115   1.401       .  A
C114        H119   1.084       .  S
C115        C116   1.411       .  A
C116        N117   1.431       .  S
N117        H121   1.045       .  S
N117        H122   1.045       .  S
N120        H123   1.045       .  S
N120        H124   1.044       .  S
C125        C126   1.402       .  A
C125        C130   1.404       .  A
C125        H132   1.084       .  S
C126        C127   1.419       .  A
C127        C128   1.405       .  A
C127        N134   1.438       .  S
C128        C129   1.403       .  A
C128        H133   1.084       .  S
C129        C130   1.410       .  A
C130        N131   1.431       .  S
N131        H135   1.045       .  S
N131        H136   1.045       .  S
N134        H137   1.043       .  S
N134        H138   1.045       .  S
C139        C140   1.399       .  A
C139        C144   1.397       .  A
C139        H146   1.081       .  S
C140        C141   1.418       .  A
C141        C142   1.406       .  A
C141        N148   1.438       .  S
C142        C143   1.403       .  A
C142        H147   1.084       .  S
C143        C144   1.412       .  A
C144        N145   1.438       .  S
N145        H149   1.046       .  S
N145        H150   1.045       .  S
N148        H151   1.042       .  S
N148        H152   1.045       .  S
C153        C154   1.405       .  A
C153        C158   1.403       .  A
C153        H160   1.084       .  S
C154        C155   1.414       .  A
C155        C156   1.401       .  A
C155        N162   1.437       .  S
C156        C157   1.399       .  A
C156        H161   1.083       .  S
C157        C158   1.409       .  A
C158        N159   1.437       .  S
N159        H163   1.046       .  S
N159        H164   1.043       .  S
N162        H165   1.042       .  S
N162        H166   1.045       .  S
C167        C168   1.403       .  A
C167        C172   1.400       .  A
C167        H174   1.084       .  S
C168        C169   1.417       .  A
C169        C170   1.402       .  A
C169        N176   1.437       .  S
C170        C171   1.409       .  A
C170        H175   1.084       .  S
C171        C172   1.414       .  A
C172        N173   1.435       .  S
N173        H177   1.046       .  S
N173        H178   1.046       .  S
N176        H179   1.041       .  S
N176        H180   1.045       .  S
C181        C182   1.402       .  A
C181        C186   1.408       .  A
C181        H188   1.084       .  S
C182        C183   1.412       .  A
C183        C184   1.392       .  A
C183        N190   1.432       .  S
C184        C185   1.405       .  A
C184        H189   1.084       .  S
C185        C186   1.420       .  A
C186        N187   1.438       .  S
N187        H191   1.046       .  S
N187        H192   1.046       .  S
N190        H193   1.044       .  S
N190        H194   1.042       .  S
C195        C196   1.401       .  A
C195        C200   1.397       .  A
C195        H202   1.081       .  S
C196        C197   1.417       .  A
C197        C198   1.409       .  A
C197        N204   1.437       .  S
C198        C199   1.403       .  A
C198        H203   1.083       .  S
C199        C200   1.413       .  A
C200        N201   1.439       .  S
N201        H205   1.046       .  S
N201        H206   1.045       .  S
N204        H207   1.045       .  S
N204        H208   1.046       .  S
C209        C210   1.401       .  A
C209        C214   1.402       .  A
C209        H216   1.081       .  S
C210        C211   1.418       .  A
C211        C212   1.400       .  A
C211        N218   1.437       .  S
C212        C213   1.404       .  A
C212        H217   1.084       .  S
C213        C214   1.420       .  A
C214        N215   1.439       .  S
N215        H219   1.046       .  S
N215        H220   1.046       .  S
N218        H221   1.043       .  S
N218        H222   1.046       .  S
C223        C224   1.404       .  A
C223        C228   1.408       .  A
C223        H230   1.084       .  S
C224        C225   1.414       .  A
C225        C226   1.405       .  A
C225        N232   1.438       .  S
C226        C227   1.403       .  A
C226        H231   1.084       .  S
C227        C228   1.415       .  A
C228        N229   1.437       .  S
N229        H233   1.045       .  S
N229        H234   1.043       .  S
N232        H235   1.046       .  S
N232        H236   1.046       .  S
C237        C238   1.402       .  A
C237        C242   1.408       .  A
C237        H244   1.084       .  S
C238        C239   1.409       .  A
C239        C240   1.406       .  A
C239        N246   1.438       .  S
C240        C241   1.407       .  A
C240        H245   1.081       .  S
C241        C242   1.414       .  A
C242        N243   1.436       .  S
N243        H247   1.046       .  S
N243        H248   1.045       .  S
N246        H249   1.046       .  S
N246        H250   1.046       .  S
C251        C252   1.405       .  A
C251        C256   1.405       .  A
C251        H258   1.084       .  S
C252        C253   1.420       .  A
C253        C254   1.402       .  A
C253        N260   1.440       .  S
C254        C255   1.402       .  A
C254        H259   1.084       .  S
C255        C256   1.417       .  A
C256        N257   1.438       .  S
N257        H261   1.045       .  S
N257        H262   1.043       .  S
N260        H263   1.042       .  S
N260        H264   1.046       .  S
C265        C266   1.403       .  A
C265        C270   1.405       .  A
C265        H272   1.084       .  S
C266        C267   1.418       .  A
C267        C268   1.405       .  A
C267        N274   1.439       .  S
C268        C269   1.403       .  A
C268        H273   1.084       .  S
C269        C270   1.411       .  A
C270        N271   1.431       .  S
N271        H275   1.046       .  S
N271        H276   1.045       .  S
N274        H277   1.043       .  S
N274        H278   1.045       .  S
C279        C280   1.402   1_554  A
C279        C284   1.403       .  A
C279        H286   1.084       .  S
C280        C769   1.415       .  A
C281        C282   1.399       .  A
C281        C768   1.415       .  A
C281        N288   1.439       .  S
C282        C283   1.401       .  A
C282        H287   1.084       .  S
C283        C772   1.415       .  A
C284        C771   1.415   1_554  A
C284        N285   1.438       .  S
N285        H289   1.046       .  S
N285        H290   1.043       .  S
N288        H291   1.043       .  S
N288        H292   1.046       .  S
C293        C294   1.406   1_455  A
C293        C298   1.403   1_455  A
C293        H300   1.083       .  S
C294        C295   1.415       .  A
C295        C296   1.398       .  A
C295        N302   1.432       .  S
C296        C297   1.403       .  A
C296        H301   1.084       .  S
C297        C298   1.408       .  A
C298        N299   1.432   1_655  S
N299        H303   1.046       .  S
N299        H304   1.046       .  S
N302        H305   1.045       .  S
N302        H306   1.044       .  S
C307        C308   1.401       .  A
C307        C312   1.400       .  A
C307        H314   1.084       .  S
C308        C309   1.409       .  A
C309        C310   1.405       .  A
C309        N316   1.438       .  S
C310        C311   1.406       .  A
C310        H315   1.082       .  S
C311        C312   1.416       .  A
C312        N313   1.432       .  S
N313        H317   1.044       .  S
N313        H318   1.046   1_655  S
N316        H319   1.046       .  S
N316        H320   1.046       .  S
C321        C322   1.401       .  A
C321        C326   1.404       .  A
C321        H328   1.083       .  S
C322        C323   1.410       .  A
C323        C324   1.401       .  A
C323        N330   1.438       .  S
C324        C325   1.406       .  A
C324        H329   1.083       .  S
C325        C326   1.418       .  A
C326        N327   1.438       .  S
N327        H331   1.046       .  S
N327        H332   1.046       .  S
N330        H333   1.044       .  S
N330        H334   1.046       .  S
C335        C336   1.403       .  A
C335        C340   1.396       .  A
C335        H342   1.084       .  S
C336        C337   1.423       .  A
C337        C338   1.400       .  A
C337        N344   1.432       .  S
C338        C339   1.402       .  A
C338        H343   1.083       .  S
C339        C340   1.411       .  A
C340        N341   1.432       .  S
N341        H345   1.045       .  S
N341        H346   1.046       .  S
N344        H347   1.046       .  S
N344        H348   1.045       .  S
C349        C350   1.400       .  A
C349        C354   1.399       .  A
C349        H356   1.084       .  S
C350        C351   1.407       .  A
C351        C352   1.406       .  A
C351        N358   1.437       .  S
C352        C353   1.409       .  A
C352        H357   1.083       .  S
C353        C354   1.417       .  A
C354        N355   1.438       .  S
N355        H359   1.046       .  S
N355        H360   1.046       .  S
N358        H361   1.043   1_455  S
N358        H362   1.045       .  S
C363        C364   1.404       .  A
C363        C368   1.403       .  A
C363        H370   1.083       .  S
C364        C365   1.419       .  A
C365        C366   1.401       .  A
C365        N372   1.439       .  S
C366        C367   1.398       .  A
C366        H371   1.084       .  S
C367        C368   1.408       .  A
C368        N369   1.437       .  S
N369        H373   1.046       .  S
N369        H374   1.045       .  S
N372        H375   1.046       .  S
N372        H376   1.046       .  S
C377        C378   1.404       .  A
C377        C382   1.396       .  A
C377        H384   1.084       .  S
C378        C379   1.415       .  A
C379        C380   1.405       .  A
C379        N386   1.438       .  S
C380        C381   1.403       .  A
C380        H385   1.082       .  S
C381        C382   1.415       .  A
C382        N383   1.437       .  S
N383        H387   1.045       .  S
N383        H388   1.039       .  S
N386        H389   1.046       .  S
N386        H390   1.046       .  S
C391        C392   1.398       .  A
C391        C396   1.398       .  A
C391        H398   1.078       .  S
C392        C393   1.409       .  A
C393        C394   1.407       .  A
C393        N400   1.431       .  S
C394        C395   1.405       .  A
C394        H399   1.084       .  S
C395        C396   1.418       .  A
C396        N397   1.439       .  S
N397        H401   1.046       .  S
N397        H402   1.045       .  S
N400        H403   1.045       .  S
N400        H404   1.046       .  S
C405        C406   1.405       .  A
C405        C410   1.405       .  A
C405        H412   1.084       .  S
C406        C407   1.412       .  A
C407        C408   1.397       .  A
C407        N414   1.432       .  S
C408        C409   1.403       .  A
C408        H413   1.084       .  S
C409        C410   1.418       .  A
C410        N411   1.438       .  S
N411        H415   1.045       .  S
N411        H416   1.043       .  S
N414        H417   1.045       .  S
N414        H418   1.044       .  S
C419        C420   1.401       .  A
C419        C424   1.404       .  A
C419        H426   1.084       .  S
C420        C421   1.410       .  A
C421        C422   1.407       .  A
C421        N428   1.437       .  S
C422        C423   1.404       .  A
C422        H427   1.084       .  S
C423        C424   1.413       .  A
C424        N425   1.432       .  S
N425        H429   1.046       .  S
N425        H430   1.045       .  S
N428        H431   1.045       .  S
N428        H432   1.046       .  S
C433        C438   1.399       .  A
C433        C922   1.403   1_554  A
C433        H440   1.084       .  S
C434        C435   1.411       .  A
C434        C921   1.403       .  A
C435        C436   1.402       .  A
C435        N442   1.438       .  S
C436        C437   1.404       .  A
C436        H441   1.084       .  S
C437        C926   1.416       .  A
C438        C925   1.416       .  A
C438        N439   1.433       .  S
N439        H443   1.043       .  S
N439        H444   1.045       .  S
N442        H445   1.046       .  S
N442        H446   1.046       .  S
C447        C448   1.402       .  A
C447        C452   1.405       .  A
C447        H454   1.084       .  S
C448        C449   1.413       .  A
C449        C450   1.398       .  A
C449        N456   1.439       .  S
C450        C451   1.405       .  A
C450        H455   1.081       .  S
C451        C452   1.418       .  A
C452        N453   1.437       .  S
N453        H457   1.045       .  S
N453        H458   1.041       .  S
N456        H459   1.043       .  S
N456        H460   1.046       .  S
C461        C462   1.402       .  A
C461        C466   1.398       .  A
C461        H468   1.084       .  S
C462        C463   1.411       .  A
C463        C464   1.408       .  A
C463        N470   1.437       .  S
C464        C465   1.408       .  A
C464        H469   1.081       .  S
C465        C466   1.419       .  A
C466        N467   1.430       .  S
N467        H471   1.043       .  S
N467        H472   1.043       .  S
N470        H473   1.046       .  S
N470        H474   1.046       .  S
C475        C476   1.405       .  A
C475        C480   1.402       .  A
C475        H482   1.084       .  S
C476        C965   1.420       .  A
C477        C478   1.403       .  A
C477        C964   1.420   1_554  A
C477        N484   1.440       .  S
C478        C967   1.403   1_554  A
C478        H483   1.084       .  S
C479        C480   1.411       .  A
C479        C966   1.403       .  A
C480        N481   1.438       .  S
N481        H485   1.046       .  S
N481        H486   1.046       .  S
N484        H487   1.042   1_565  S
N484        H488   1.046       .  S
C489        C494   1.403       .  A
C489        C967   1.483       .  S
C490        C491   1.406       .  A
C490        H495   1.084       .  S
C491        C492   1.407       .  A
C491        C950   1.488       .  S
C492        H496   1.084       .  S
C493        C494   1.400       .  A
C493        C936   1.476       .  S
C494        H497   1.084       .  S
C498        C503   1.401       .  A
C498        C922   1.479       .  S
C499        C500   1.403       .  A
C499        H504   1.084       .  S
C500        C908   1.481       .  S
C501        C502   1.407       .  A
C501        H505   1.084       .  S
C502        C503   1.401       .  A
C502        C897   1.483       .  S
C503        H506   1.084       .  S
C507        C508   1.369       .  D
C507        C939   1.496       .  S
C507        C953   1.504       .  S
C508        C869   1.487       .  S
C508        C880   1.491       .  S
O509        C517   1.258       .  A
O510        C511   1.260       .  A
C511        C841   1.488       .  S
C511        O512   1.270       .  A
O513        C514   1.261       .  A
C514        C813   1.487       .  S
C514        O515   1.265       .  A
O516        C517   1.263       .  A
C517        C883   1.484       .  S
O518        C526   1.261       .  A
O518       Cr527   1.964       .  S
O519        C520   1.258       .  A
O519       Cr527   1.989       .  S
C520        C852   1.482       .  S
C520        O521   1.260       .  A
O521       Cr528   1.985       .  S
O522        C523   1.263       .  A
O522       Cr528   2.000       .  S
C523        C824   1.485       .  S
C523        O524   1.263       .  A
O524       Cr529   1.974       .  S
O525        C526   1.269       .  A
O525       Cr529   2.017       .  S
C526        C866   1.483       .  S
Cr527       O530   1.761       .  S
Cr528       O530   1.768       .  S
Cr529       O530   1.769       .  S
C531        C532   1.369       .  D
C531        C894   1.495       .  S
C531        C911   1.496       .  S
C532        C810   1.490       .  S
C532        C827   1.492       .  S
C533        C534   1.366       .  D
C533        C838   1.485       .  S
C533        C855   1.483       .  S
C534        C782   1.494   1_455  S
C534        C799   1.498   1_455  S
C535        C536   1.400       .  A
C535        C768   1.473       .  S
C536        C537   1.402       .  A
C536        H541   1.084       .  S
C537        C538   1.405       .  A
C537        C796   1.478       .  S
C538        H542   1.084       .  S
C539        C540   1.404       .  A
C539        C785   1.483       .  S
C540        H543   1.084       .  S
C544        C545   1.401   1_554  A
C544        C771   1.474   1_554  S
C545        C546   1.403       .  A
C545        H550   1.084       .  S
C546        C547   1.408   1_556  A
C546        C754   1.483       .  S
C547        H551   1.084       .  S
C548        C549   1.404       .  A
C548        C740   1.487       .  S
C549        H552   1.084       .  S
C553        C554   1.403   1_554  A
C553        C925   1.482       .  S
C554        C555   1.401       .  A
C554        H559   1.084       .  S
C555        C556   1.406   1_556  A
C555        C726   1.483       .  S
C556        H560   1.084       .  S
C557        C558   1.405       .  A
C557        C712   1.490       .  S
C558        H561   1.082       .  S
C562        C563   1.372       .  D
C562        C743   1.495       .  S
C562        C757   1.497       .  S
C563        C687   1.494       .  S
C563        C698   1.497       .  S
C564        C565   1.372       .  D
C564        C715   1.498       .  S
C564        C729   1.505       .  S
C565        C656   1.493       .  S
C565        C670   1.491       .  S
O566        C574   1.260       .  A
O567        C568   1.262       .  A
C568        C642   1.481       .  S
C568        O569   1.268       .  A
O570        C571   1.262       .  A
C571        C659   1.490       .  S
C571        O572   1.266       .  A
O573        C574   1.262       .  A
C574        C701   1.489       .  S
O575        C583   1.261       .  A
O575       Cr584   1.966       .  S
O576        C577   1.259       .  A
O576       Cr584   1.988       .  S
C577        C631   1.475       .  S
C577        O578   1.262       .  A
O578       Cr585   1.992   1_556  S
O579        C580   1.264       .  A
O579       Cr585   2.004   1_556  S
C580        C673   1.489       .  S
C580        O581   1.261       .  A
O581       Cr586   1.971   1_556  S
O582        C583   1.267       .  A
O582       Cr586   2.015   1_556  S
C583        C684   1.484       .  S
Cr584       O587   1.765   1_556  S
Cr585       O587   1.774       .  S
Cr586       O587   1.772       .  S
C588        C589   1.365       .  D
C588        C628   1.486       .  S
C588        C645   1.483       .  S
C589        C603   1.492       .  S
C589        C617   1.495       .  S
C590        C595   1.403   1_554  A
C590        C964   1.484   1_544  S
C591        C592   1.403       .  A
C591        H596   1.084       .  S
C592        C614   1.484       .  S
C593        C594   1.408   1_554  A
C593        H597   1.084       .  S
C594        C595   1.401       .  A
C594        C600   1.485       .  S
C595        H598   1.084       .  S
C599        C600   1.402       .  A
C599        C604   1.406       .  A
C599        H606   1.084       .  S
C600        C601   1.416       .  A
C601        C602   1.401       .  A
C601        N608   1.433       .  S
C602        C603   1.401       .  A
C602        H607   1.084       .  S
C603        C604   1.411       .  A
C604        N605   1.431       .  S
N605        H609   1.045       .  S
N605        H610   1.045       .  S
N608        H611   1.045       .  S
N608        H612   1.044       .  S
C613        C614   1.402       .  A
C613        C618   1.404       .  A
C613        H620   1.084       .  S
C614        C615   1.419       .  A
C615        C616   1.405       .  A
C615        N622   1.438       .  S
C616        C617   1.403       .  A
C616        H621   1.084       .  S
C617        C618   1.410       .  A
C618        N619   1.431       .  S
N619        H623   1.045       .  S
N619        H624   1.045       .  S
N622        H625   1.043       .  S
N622        H626   1.045       .  S
C627        C628   1.399       .  A
C627        C632   1.397       .  A
C627        H634   1.081       .  S
C628        C629   1.418       .  A
C629        C630   1.406       .  A
C629        N636   1.438       .  S
C630        C631   1.403       .  A
C630        H635   1.084       .  S
C631        C632   1.412       .  A
C632        N633   1.438       .  S
N633        H637   1.046       .  S
N633        H638   1.045       .  S
N636        H639   1.042       .  S
N636        H640   1.045       .  S
C641        C642   1.405       .  A
C641        C646   1.403       .  A
C641        H648   1.084       .  S
C642        C643   1.414       .  A
C643        C644   1.401       .  A
C643        N650   1.437       .  S
C644        C645   1.399       .  A
C644        H649   1.083       .  S
C645        C646   1.409       .  A
C646        N647   1.437       .  S
N647        H651   1.046       .  S
N647        H652   1.043       .  S
N650        H653   1.042       .  S
N650        H654   1.045       .  S
C655        C656   1.403       .  A
C655        C660   1.400       .  A
C655        H662   1.084       .  S
C656        C657   1.417       .  A
C657        C658   1.402       .  A
C657        N664   1.437       .  S
C658        C659   1.409       .  A
C658        H663   1.084       .  S
C659        C660   1.414       .  A
C660        N661   1.435       .  S
N661        H665   1.046       .  S
N661        H666   1.046       .  S
N664        H667   1.041       .  S
N664        H668   1.045       .  S
C669        C670   1.402       .  A
C669        C674   1.408       .  A
C669        H676   1.084       .  S
C670        C671   1.412       .  A
C671        C672   1.392       .  A
C671        N678   1.432       .  S
C672        C673   1.405       .  A
C672        H677   1.084       .  S
C673        C674   1.420       .  A
C674        N675   1.438       .  S
N675        H679   1.046       .  S
N675        H680   1.046       .  S
N678        H681   1.044       .  S
N678        H682   1.042       .  S
C683        C684   1.401       .  A
C683        C688   1.397       .  A
C683        H690   1.081       .  S
C684        C685   1.417       .  A
C685        C686   1.409       .  A
C685        N692   1.437       .  S
C686        C687   1.403       .  A
C686        H691   1.083       .  S
C687        C688   1.413       .  A
C688        N689   1.439       .  S
N689        H693   1.046       .  S
N689        H694   1.045       .  S
N692        H695   1.045       .  S
N692        H696   1.046       .  S
C697        C698   1.401       .  A
C697        C702   1.402       .  A
C697        H704   1.081       .  S
C698        C699   1.418       .  A
C699        C700   1.400       .  A
C699        N706   1.437       .  S
C700        C701   1.404       .  A
C700        H705   1.084       .  S
C701        C702   1.420       .  A
C702        N703   1.439       .  S
N703        H707   1.046       .  S
N703        H708   1.046       .  S
N706        H709   1.043       .  S
N706        H710   1.046       .  S
C711        C712   1.404       .  A
C711        C716   1.408       .  A
C711        H718   1.084       .  S
C712        C713   1.414       .  A
C713        C714   1.405       .  A
C713        N720   1.438       .  S
C714        C715   1.403       .  A
C714        H719   1.084       .  S
C715        C716   1.415       .  A
C716        N717   1.437       .  S
N717        H721   1.045       .  S
N717        H722   1.043       .  S
N720        H723   1.046       .  S
N720        H724   1.046       .  S
C725        C726   1.402       .  A
C725        C730   1.408       .  A
C725        H732   1.084       .  S
C726        C727   1.409       .  A
C727        C728   1.406       .  A
C727        N734   1.438       .  S
C728        C729   1.407       .  A
C728        H733   1.081       .  S
C729        C730   1.414       .  A
C730        N731   1.436       .  S
N731        H735   1.046       .  S
N731        H736   1.045       .  S
N734        H737   1.046       .  S
N734        H738   1.046       .  S
C739        C740   1.405       .  A
C739        C744   1.405       .  A
C739        H746   1.084       .  S
C740        C741   1.420       .  A
C741        C742   1.402       .  A
C741        N748   1.440       .  S
C742        C743   1.402       .  A
C742        H747   1.084       .  S
C743        C744   1.417       .  A
C744        N745   1.438       .  S
N745        H749   1.045       .  S
N745        H750   1.043       .  S
N748        H751   1.042       .  S
N748        H752   1.046       .  S
C753        C754   1.403       .  A
C753        C758   1.405       .  A
C753        H760   1.084       .  S
C754        C755   1.418       .  A
C755        C756   1.405       .  A
C755        N762   1.439       .  S
C756        C757   1.403       .  A
C756        H761   1.084       .  S
C757        C758   1.411       .  A
C758        N759   1.431       .  S
N759        H763   1.046       .  S
N759        H764   1.045       .  S
N762        H765   1.043       .  S
N762        H766   1.045       .  S
C767        C768   1.402       .  A
C767        C772   1.403       .  A
C767        H774   1.084       .  S
C769        C770   1.399       .  A
C769        N776   1.439       .  S
C770        C771   1.401       .  A
C770        H775   1.084       .  S
C772        N773   1.438       .  S
N773        H777   1.046       .  S
N773        H778   1.043       .  S
N776        H779   1.043       .  S
N776        H780   1.046       .  S
C781        C782   1.406   1_455  A
C781        C786   1.403   1_455  A
C781        H788   1.083       .  S
C782        C783   1.415       .  A
C783        C784   1.398       .  A
C783        N790   1.432       .  S
C784        C785   1.403       .  A
C784        H789   1.084       .  S
C785        C786   1.408       .  A
C786        N787   1.432   1_655  S
N787        H791   1.046       .  S
N787        H792   1.046       .  S
N790        H793   1.045       .  S
N790        H794   1.044       .  S
C795        C796   1.401       .  A
C795        C800   1.400       .  A
C795        H802   1.084       .  S
C796        C797   1.409       .  A
C797        C798   1.405       .  A
C797        N804   1.438       .  S
C798        C799   1.406       .  A
C798        H803   1.082       .  S
C799        C800   1.416       .  A
C800        N801   1.432       .  S
N801        H805   1.044       .  S
N801        H806   1.046   1_655  S
N804        H807   1.046       .  S
N804        H808   1.046       .  S
C809        C810   1.401       .  A
C809        C814   1.404       .  A
C809        H816   1.083       .  S
C810        C811   1.410       .  A
C811        C812   1.401       .  A
C811        N818   1.438       .  S
C812        C813   1.406       .  A
C812        H817   1.083       .  S
C813        C814   1.418       .  A
C814        N815   1.438       .  S
N815        H819   1.046       .  S
N815        H820   1.046       .  S
N818        H821   1.044       .  S
N818        H822   1.046       .  S
C823        C824   1.403       .  A
C823        C828   1.396       .  A
C823        H830   1.084       .  S
C824        C825   1.423       .  A
C825        C826   1.400       .  A
C825        N832   1.432       .  S
C826        C827   1.402       .  A
C826        H831   1.083       .  S
C827        C828   1.411       .  A
C828        N829   1.432       .  S
N829        H833   1.045       .  S
N829        H834   1.046       .  S
N832        H835   1.046       .  S
N832        H836   1.045       .  S
C837        C838   1.400       .  A
C837        C842   1.399       .  A
C837        H844   1.084       .  S
C838        C839   1.407       .  A
C839        C840   1.406       .  A
C839        N846   1.437       .  S
C840        C841   1.409       .  A
C840        H845   1.083       .  S
C841        C842   1.417       .  A
C842        N843   1.438       .  S
N843        H847   1.046       .  S
N843        H848   1.046       .  S
N846        H849   1.043   1_455  S
N846        H850   1.045       .  S
C851        C852   1.404       .  A
C851        C856   1.403       .  A
C851        H858   1.083       .  S
C852        C853   1.419       .  A
C853        C854   1.401       .  A
C853        N860   1.439       .  S
C854        C855   1.398       .  A
C854        H859   1.084       .  S
C855        C856   1.408       .  A
C856        N857   1.437       .  S
N857        H861   1.046       .  S
N857        H862   1.045       .  S
N860        H863   1.046       .  S
N860        H864   1.046       .  S
C865        C866   1.404       .  A
C865        C870   1.396       .  A
C865        H872   1.084       .  S
C866        C867   1.415       .  A
C867        C868   1.405       .  A
C867        N874   1.438       .  S
C868        C869   1.403       .  A
C868        H873   1.082       .  S
C869        C870   1.415       .  A
C870        N871   1.437       .  S
N871        H875   1.045       .  S
N871        H876   1.039       .  S
N874        H877   1.046       .  S
N874        H878   1.046       .  S
C879        C880   1.398       .  A
C879        C884   1.398       .  A
C879        H886   1.078       .  S
C880        C881   1.409       .  A
C881        C882   1.407       .  A
C881        N888   1.431       .  S
C882        C883   1.405       .  A
C882        H887   1.084       .  S
C883        C884   1.418       .  A
C884        N885   1.439       .  S
N885        H889   1.046       .  S
N885        H890   1.045       .  S
N888        H891   1.045       .  S
N888        H892   1.046       .  S
C893        C894   1.405       .  A
C893        C898   1.405       .  A
C893        H900   1.084       .  S
C894        C895   1.412       .  A
C895        C896   1.397       .  A
C895        N902   1.432       .  S
C896        C897   1.403       .  A
C896        H901   1.084       .  S
C897        C898   1.418       .  A
C898        N899   1.438       .  S
N899        H903   1.045       .  S
N899        H904   1.043       .  S
N902        H905   1.045       .  S
N902        H906   1.044       .  S
C907        C908   1.401       .  A
C907        C912   1.404       .  A
C907        H914   1.084       .  S
C908        C909   1.410       .  A
C909        C910   1.407       .  A
C909        N916   1.437       .  S
C910        C911   1.404       .  A
C910        H915   1.084       .  S
C911        C912   1.413       .  A
C912        N913   1.432       .  S
N913        H917   1.046       .  S
N913        H918   1.045       .  S
N916        H919   1.045       .  S
N916        H920   1.046       .  S
C921        C926   1.399       .  A
C921        H928   1.084       .  S
C922        C923   1.411       .  A
C923        C924   1.402       .  A
C923        N930   1.438       .  S
C924        C925   1.404   1_556  A
C924        H929   1.084       .  S
C926        N927   1.433       .  S
N927        H931   1.043       .  S
N927        H932   1.045       .  S
N930        H933   1.046       .  S
N930        H934   1.046       .  S
C935        C936   1.402       .  A
C935        C940   1.405       .  A
C935        H942   1.084       .  S
C936        C937   1.413       .  A
C937        C938   1.398       .  A
C937        N944   1.439       .  S
C938        C939   1.405       .  A
C938        H943   1.081       .  S
C939        C940   1.418       .  A
C940        N941   1.437       .  S
N941        H945   1.045       .  S
N941        H946   1.041       .  S
N944        H947   1.043       .  S
N944        H948   1.046       .  S
C949        C950   1.402       .  A
C949        C954   1.398       .  A
C949        H956   1.084       .  S
C950        C951   1.411       .  A
C951        C952   1.408       .  A
C951        N958   1.437       .  S
C952        C953   1.408       .  A
C952        H957   1.081       .  S
C953        C954   1.419       .  A
C954        N955   1.430       .  S
N955        H959   1.043       .  S
N955        H960   1.043       .  S
N958        H961   1.046       .  S
N958        H962   1.046       .  S
C963        C964   1.405       .  A
C963        C968   1.402       .  A
C963        H970   1.084       .  S
C965        C966   1.403       .  A
C965        N972   1.440       .  S
C966        H971   1.084       .  S
C967        C968   1.411       .  A
C968        N969   1.438       .  S
N969        H973   1.046       .  S
N969        H974   1.046       .  S
N972        H975   1.042   1_565  S
N972        H976   1.046       .  S
