geometry optimzed in LAMMPS
_audit_creation_date              2020-11-30 
_audit_creation_method            'lammps2cif' 
_symmetry_space_group_name_H-M    'P1' 
_symmetry_Int_Tables_number       1 
_symmetry_cell_setting            triclinic 
loop_ 
_symmetry_equiv_pos_as_xyz 
  x,y,z 
_cell_length_a                    50.71152596802492 
_cell_length_b                    50.66857453383649 
_cell_length_c                    50.71219296963946 
_cell_angle_alpha                 89.97538102404538 
_cell_angle_beta                  89.99866465813243 
_cell_angle_gamma                 90.06744658146073 
loop_ 
_atom_site_label 
_atom_site_type_symbol 
_atom_site_fract_x 
_atom_site_fract_y 
_atom_site_fract_z 
_atom_site_charge 
N1          N  0.66780674  0.72529780  0.74401280    -0.26650
N2          N  0.66923535  0.74499355  0.72694817    -0.34500
C3          C  0.64802674  0.76062226  0.73002803     0.01700
C4          C  0.63251885  0.75028879  0.75000163     0.07720
C5          C  0.64570018  0.72791433  0.75841541    -0.05380
H6          H  0.64405922  0.77809203  0.71839773     0.08390
H7          H  0.63940110  0.71421816  0.77355259     0.09590
Cu8        Cu  0.69893804  0.74879504  0.69900208     0.44170
Cu9        Cu  0.69518385  0.69498116  0.74622235     0.41990
Cu10       Cu  0.74176674  0.69216485  0.69249880     0.43880
N11         N  0.72660249  0.74464505  0.66911577    -0.34030
N12         N  0.74090237  0.72313450  0.66581264    -0.28290
C13         C  0.75474248  0.72535643  0.64332543    -0.04390
C14         C  0.74935233  0.74969625  0.63199243     0.07830
C15         C  0.73148095  0.76140121  0.64912437     0.01630
H16         H  0.76749421  0.71009418  0.63562824     0.09280
H17         H  0.72244585  0.78062974  0.64718939     0.08360
N18         N  0.74109112  0.66522450  0.72325230    -0.35480
N19         N  0.72413336  0.66627093  0.74301745    -0.27660
C20         C  0.72852147  0.64575421  0.75928012    -0.02900
C21         C  0.74923973  0.63108807  0.74924564     0.05710
C22         C  0.75676363  0.64408316  0.72643362     0.03800
H23         H  0.71702049  0.64143139  0.77672781     0.08910
H24         H  0.77226132  0.63839233  0.71293336     0.07740
N25         N  0.66697510  0.17102682  0.74283681    -0.26650
N26         N  0.66779260  0.15193031  0.72510692    -0.34500
C27         C  0.64686995  0.13598790  0.72855878     0.01700
C28         C  0.63201857  0.14558426  0.74935969     0.07720
C29         C  0.64541310  0.16781481  0.75794556    -0.05380
H30         H  0.64261431  0.11884444  0.71655785     0.08390
H31         H  0.63959953  0.18104710  0.77364874     0.09590
Cu32       Cu  0.69631764  0.14923865  0.69596771     0.44170
Cu33       Cu  0.69477647  0.20098252  0.74518150     0.41990
Cu34       Cu  0.74676651  0.19969073  0.69604597     0.43880
N35         N  0.72562139  0.15197068  0.66760063    -0.34030
N36         N  0.74416140  0.17032848  0.66768339    -0.28290
C37         C  0.75955924  0.16715376  0.64632542    -0.04390
C38         C  0.75020407  0.14581265  0.63204623     0.07830
C39         C  0.72867863  0.13667681  0.64616041     0.01630
H40         H  0.77617818  0.17963316  0.64142381     0.09280
H41         H  0.71581689  0.12044542  0.64092782     0.08360
N42         N  0.74376202  0.22823727  0.72518485    -0.35480
N43         N  0.72477038  0.22876172  0.74304192    -0.27660
C44         C  0.72795716  0.25017734  0.75837695    -0.02900
C45         C  0.74997996  0.26382248  0.74972994     0.05710
C46         C  0.75952252  0.24931091  0.72867919     0.03800
H47         H  0.71485873  0.25572980  0.77426838     0.08910
H48         H  0.77650002  0.25388435  0.71659343     0.07740
N49         N  0.22844128  0.17020853  0.74379256    -0.26650
N50         N  0.22959296  0.15310071  0.72414282    -0.34500
C51         C  0.25110151  0.13790011  0.72716454     0.01700
C52         C  0.26417475  0.14588089  0.74974189     0.07720
C53         C  0.24923399  0.16638617  0.75979388    -0.05380
H54         H  0.25713109  0.12258971  0.71356882     0.08390
H55         H  0.25336746  0.17793117  0.77726529     0.09590
Cu56       Cu  0.20249370  0.15173578  0.69357801     0.44170
Cu57       Cu  0.19949421  0.19889087  0.74730987     0.41990
Cu58       Cu  0.14932406  0.19917238  0.69660213     0.43880
N59         N  0.17225187  0.15358047  0.66615369    -0.34030
N60         N  0.15228504  0.17021934  0.66784237    -0.28290
C61         C  0.13592598  0.16614929  0.64738049    -0.04390
C62         C  0.14626195  0.14623102  0.63174569     0.07830
C63         C  0.16934076  0.13877243  0.64435111     0.01630
H64         H  0.11798566  0.17715869  0.64399983     0.09280
H65         H  0.18332740  0.12402604  0.63788542     0.08360
N66         N  0.15226784  0.22774704  0.72575770    -0.35480
N67         N  0.17028288  0.22739079  0.74458401    -0.27660
C68         C  0.16710947  0.24875314  0.75999841    -0.02900
C69         C  0.14620803  0.26344468  0.75029475     0.05710
C70         C  0.13732289  0.24947103  0.72854468     0.03800
H71         H  0.17928917  0.25334080  0.77689730     0.08910
H72         H  0.12146360  0.25494316  0.71537932     0.07740
N73         N  0.22673205  0.72630720  0.74495901    -0.26650
N74         N  0.23049760  0.73990533  0.72307210    -0.34500
C75         C  0.25313731  0.75354943  0.72511574     0.01700
C76         C  0.26405977  0.74896014  0.74981542     0.07720
C77         C  0.24646492  0.73165746  0.76185879    -0.05380
H78         H  0.26119094  0.76560419  0.70945622     0.08390
H79         H  0.24784378  0.72333821  0.78144174     0.09590
Cu80       Cu  0.20386681  0.74058953  0.69210024     0.44170
Cu81       Cu  0.19677234  0.69859271  0.74922896     0.41990
Cu82       Cu  0.14919713  0.69508468  0.69565683     0.43880
N83         N  0.17285609  0.74045168  0.66549127    -0.34030
N84         N  0.15285331  0.72375135  0.66666138    -0.28290
C85         C  0.13663483  0.72828611  0.64616093    -0.04390
C86         C  0.14688664  0.74890983  0.63141047     0.07830
C87         C  0.16979774  0.75619499  0.64437939     0.01630
H88         H  0.11904930  0.71694779  0.64192338     0.09280
H89         H  0.18347127  0.77158744  0.63869307     0.08360
N90         N  0.15135120  0.66769162  0.72600215    -0.35480
N91         N  0.16878424  0.66879595  0.74539328    -0.27660
C92         C  0.16588379  0.64733844  0.76079649    -0.02900
C93         C  0.14556407  0.63222723  0.75067890     0.05710
C94         C  0.13675470  0.64566571  0.72869415     0.03800
H95         H  0.17786113  0.64291687  0.77788313     0.08910
H96         H  0.12127206  0.63960317  0.71532474     0.07740
N97         N  0.15151888  0.66827700  0.16960487    -0.26650
N98         N  0.17041443  0.66785538  0.15166031    -0.34500
C99         C  0.16761281  0.64617346  0.13665543     0.01700
C100        C  0.14606399  0.63202561  0.14572869     0.07720
C101        C  0.13636402  0.64667684  0.16666357    -0.05380
H102        H  0.18051856  0.64098070  0.12049195     0.08390
H103        H  0.11983982  0.64172479  0.17921878     0.09590
Cu104      Cu  0.20034160  0.69557637  0.14946955     0.44170
Cu105      Cu  0.14790065  0.69753328  0.19803965     0.41990
Cu106      Cu  0.20309072  0.74252810  0.20301892     0.43880
N107        N  0.22922399  0.72426124  0.15290582    -0.34030
N108        N  0.23003948  0.74163117  0.17231752    -0.28290
C109        C  0.25121415  0.75726700  0.16905534    -0.04390
C110        C  0.26459375  0.74916330  0.14666529     0.07830
C111        C  0.25002419  0.72818510  0.13694045     0.01630
H112        H  0.25664584  0.77315404  0.18224471     0.09280
H113        H  0.25454935  0.71620792  0.11986702     0.08360
N114        N  0.17258827  0.74098969  0.23016412    -0.35480
N115        N  0.15155409  0.72586213  0.22737997    -0.27660
C116        C  0.13491223  0.73047983  0.24749150    -0.02900
C117        C  0.14624172  0.74900059  0.26422371     0.05710
C118        C  0.17022179  0.75507779  0.25248411     0.03800
H119        H  0.11603774  0.72081795  0.24978128     0.08910
H120        H  0.18516721  0.76843653  0.25980130     0.07740
N121        N  0.74075574  0.66448729  0.17386161    -0.26650
N122        N  0.72473802  0.66669762  0.15347661    -0.34500
C123        C  0.72947126  0.64685989  0.13655099     0.01700
C124        C  0.74896683  0.63074992  0.14707038     0.07720
C125        C  0.75552318  0.64267913  0.17086182    -0.05380
H126        H  0.71927083  0.64440400  0.11800027     0.08390
H127        H  0.76969419  0.63584715  0.18524399     0.09590
Cu128      Cu  0.69549708  0.69509303  0.15102716     0.44170
Cu129      Cu  0.74254989  0.69216132  0.20394379     0.41990
Cu130      Cu  0.69878568  0.74897449  0.19750198     0.43880
N131        N  0.66750560  0.72474616  0.15331098    -0.34030
N132        N  0.66970613  0.74552728  0.16884332    -0.28290
C133        C  0.64907290  0.76163750  0.16459410    -0.04390
C134        C  0.63254511  0.75014413  0.14595107     0.07830
C135        C  0.64499649  0.72661823  0.13948332     0.01630
H136        H  0.64634454  0.78029243  0.17457227     0.09280
H137        H  0.63804813  0.71156734  0.12605133     0.08360
N138        N  0.72618234  0.74438258  0.22764818    -0.35480
N139        N  0.74214891  0.72385388  0.22984583    -0.27660
C140        C  0.75690418  0.72667519  0.25170566    -0.02900
C141        C  0.74969447  0.74991604  0.26396527     0.05710
C142        C  0.73014287  0.76062029  0.24826624     0.03800
H143        H  0.77133012  0.71251461  0.25853948     0.08910
H144        H  0.71935566  0.77870322  0.25175780     0.07740
N145        N  0.66539904  0.15569080  0.17344044    -0.26650
N146        N  0.66998096  0.16835866  0.15115624    -0.34500
C147        C  0.65051546  0.16283814  0.13400731     0.01700
C148        C  0.63212604  0.14651314  0.14626335     0.07720
C149        C  0.64239994  0.14265382  0.17140095    -0.05380
H150        H  0.64994146  0.17035781  0.11407018     0.08390
H151        H  0.63369364  0.13151965  0.18737764     0.09590
Cu152      Cu  0.70034748  0.19559909  0.14659531     0.44170
Cu153      Cu  0.69162839  0.15496888  0.20485661     0.41990
Cu154      Cu  0.74588099  0.20087907  0.20141852     0.43880
N155        N  0.72772221  0.22595572  0.15061973    -0.34030
N156        N  0.74425362  0.22786111  0.17071854    -0.28290
C157        C  0.75843916  0.25017641  0.16823269    -0.04390
C158        C  0.75035521  0.26292777  0.14557715     0.07830
C159        C  0.73086577  0.24713350  0.13487380     0.01630
H160        H  0.77320181  0.25684324  0.18212072     0.09280
H161        H  0.71954430  0.25094883  0.11720379     0.08360
N162        N  0.74261704  0.17197577  0.23018062    -0.35480
N163        N  0.72287366  0.15493852  0.23131599    -0.27660
C164        C  0.72642790  0.13893314  0.25219942    -0.02900
C165        C  0.74938592  0.14643691  0.26484971     0.05710
C166        C  0.75910066  0.16748247  0.25046441     0.03800
H167        H  0.71291300  0.12351134  0.25818296     0.08910
H168        H  0.77659924  0.17896082  0.25469232     0.07740
N169        N  0.79339771  0.40671401  0.79875369    -0.26650
N170        N  0.81197906  0.39404446  0.81192328    -0.34500
C171        C  0.80979205  0.36803527  0.80728772     0.01700
C172        C  0.78868309  0.36395901  0.79049430     0.07720
C173        C  0.77874798  0.38896878  0.78548965    -0.05380
H174        H  0.82278680  0.35320045  0.81543348     0.08390
H175        H  0.76208910  0.39391274  0.77313498     0.09590
Cu176      Cu  0.83930263  0.41225494  0.83602806     0.44170
Cu177      Cu  0.78971144  0.44764934  0.79861041     0.41990
Cu178      Cu  0.84035854  0.48312326  0.83490722     0.43880
N179        N  0.86343955  0.43469837  0.85995680    -0.34030
N180        N  0.86384756  0.46077203  0.85955782    -0.28290
C181        C  0.88114051  0.46946310  0.87766642    -0.04390
C182        C  0.89210957  0.44776062  0.88996845     0.07830
C183        C  0.88048094  0.42604449  0.87829459     0.01630
H184        H  0.88534269  0.49004782  0.88159956     0.09280
H185        H  0.88404790  0.40546743  0.88282910     0.08360
N186        N  0.81267524  0.50124129  0.81114358    -0.35480
N187        N  0.79349564  0.48858409  0.79882374    -0.27660
C188        C  0.77841942  0.50631771  0.78608607    -0.02900
C189        C  0.78877533  0.53133511  0.79035096     0.05710
C190        C  0.81055737  0.52721923  0.80628642     0.03800
H191        H  0.76120182  0.50132437  0.77453946     0.08910
H192        H  0.82408367  0.54198547  0.81368952     0.07740
N193        N  0.09696331  0.48841749  0.79358695    -0.26650
N194        N  0.08755801  0.50052084  0.81463256    -0.34500
C195        C  0.09335717  0.52634845  0.81313482     0.01700
C196        C  0.10647744  0.53119715  0.78959149     0.07720
C197        C  0.10822041  0.50649198  0.77770687    -0.05380
H198        H  0.08839914  0.54047247  0.82831638     0.08390
H199        H  0.11690903  0.50185556  0.75881247     0.09590
Cu200      Cu  0.06474735  0.48223929  0.84315093     0.44170
Cu201      Cu  0.09629123  0.44752649  0.78886852     0.41990
Cu202      Cu  0.05943943  0.41181765  0.83866532     0.43880
N203        N  0.03839361  0.46026923  0.86531635    -0.34030
N204        N  0.03651182  0.43431155  0.86363280    -0.28290
C205        C  0.01741628  0.42586172  0.87995082    -0.04390
C206        C  0.00669131  0.44759405  0.89237891     0.07830
C207        C  0.02039469  0.46910206  0.88265537     0.01630
H208        H  0.01169092  0.40541296  0.88244966     0.09280
H209        H  0.01752123  0.48964349  0.88777970     0.08360
N210        N  0.08350937  0.39376749  0.81126349    -0.35480
N211        N  0.09682881  0.40654026  0.79281921    -0.27660
C212        C  0.11055164  0.38888109  0.77849445    -0.02900
C213        C  0.10549835  0.36386101  0.78840391     0.05710
C214        C  0.08831353  0.36778895  0.80918194     0.03800
H215        H  0.12319002  0.39385711  0.76204039     0.08910
H216        H  0.07999799  0.35285120  0.82199657     0.07740
N217        N  0.79884032  0.48864304  0.10287340    -0.26650
N218        N  0.81348363  0.50152932  0.08553342    -0.34500
C219        C  0.80903277  0.52755794  0.08786469     0.01700
C220        C  0.79052206  0.53126130  0.10744835     0.07720
C221        C  0.78438707  0.50623190  0.11654205    -0.05380
H222        H  0.81844330  0.54265877  0.07603537     0.08390
H223        H  0.77060879  0.50121824  0.13204366     0.09590
Cu224      Cu  0.83818792  0.48339826  0.05878871     0.44170
Cu225      Cu  0.79912054  0.44767179  0.10659124     0.41990
Cu226      Cu  0.83055066  0.41311198  0.05223992     0.43880
N227        N  0.86036479  0.46082638  0.03323831    -0.34030
N228        N  0.85767898  0.43499387  0.03078024    -0.28290
C229        C  0.87539226  0.42616860  0.01312855    -0.04390
C230        C  0.88968801  0.44755834  0.00397549     0.07830
C231        C  0.87963100  0.46920111  0.01708469     0.01630
H232        H  0.87763109  0.40572208  0.00735467     0.09280
H233        H  0.88592355  0.48954497  0.01515578     0.08360
N234        N  0.80757168  0.39477415  0.08068754    -0.35480
N235        N  0.79861155  0.40681278  0.10194770    -0.27660
C236        C  0.78771465  0.38871864  0.11803720    -0.02900
C237        C  0.78901918  0.36402037  0.10603789     0.05710
C238        C  0.80162614  0.36897451  0.08218800     0.03800
H239        H  0.77965443  0.39338576  0.13719339     0.08910
H240        H  0.80615151  0.35497268  0.06676953     0.07740
N241        N  0.09908217  0.40662829  0.10162652    -0.26650
N242        N  0.08484621  0.39389023  0.08387488    -0.34500
C243        C  0.08892551  0.36782717  0.08645262     0.01700
C244        C  0.10649239  0.36381966  0.10692340     0.07720
C245        C  0.11252622  0.38889299  0.11609121    -0.05380
H246        H  0.07984812  0.35289662  0.07418122     0.08390
H247        H  0.12565530  0.39388084  0.13214498     0.09590
Cu248      Cu  0.06008038  0.41207004  0.05713625     0.44170
Cu249      Cu  0.10004965  0.44757115  0.10478180     0.41990
Cu250      Cu  0.06037860  0.48298891  0.05683111     0.43880
N251        N  0.03572378  0.43446174  0.03340221    -0.34030
N252        N  0.03584233  0.46054143  0.03328740    -0.28290
C253        C  0.01760502  0.46920288  0.01613969    -0.04390
C254        C  0.00546001  0.44748445  0.00499701     0.07830
C255        C  0.01741275  0.42577705  0.01632314     0.01630
H256        H  0.01350325  0.48978772  0.01212184     0.09280
H257        H  0.01313173  0.40519209  0.01248152     0.08360
N258        N  0.08501146  0.50121594  0.08368876    -0.35480
N259        N  0.09903683  0.48851056  0.10161619    -0.27660
C260        C  0.11230728  0.50627385  0.11622375    -0.02900
C261        C  0.10641947  0.53133939  0.10694715     0.05710
C262        C  0.08909830  0.52728509  0.08626588     0.03800
H263        H  0.12523128  0.50130308  0.13244398     0.08910
H264        H  0.08018654  0.54218711  0.07385010     0.07740
O265        O  0.91995899  0.46941266  0.97576081    -0.72300
O266        O  0.97663289  0.46960715  0.92065660    -0.73280
O267        O  0.92070262  0.46961584  0.91984794    -0.61900
O268        O  0.97587670  0.46945752  0.97630369    -0.70310
O269        O  0.97570381  0.42560878  0.97628367    -0.69860
O270        O  0.92056269  0.42576750  0.91977669    -0.61120
O271        O  0.97638342  0.42576169  0.92052694    -0.73620
O272        O  0.91963516  0.42557198  0.97553137    -0.72400
Cu273      Cu  0.94826128  0.47106425  0.94816086     1.04560
Cu274      Cu  0.94805643  0.42413873  0.94804956     1.04330
C275        C  0.91078612  0.44749358  0.98421293     0.93900
C276        C  0.98553292  0.44767451  0.91205133     0.93040
C277        C  0.91202423  0.44772325  0.91086672     0.85180
C278        C  0.98465098  0.44750782  0.98498907     0.91460
N279        N  0.40711054  0.79472945  0.79610947    -0.26650
N280        N  0.39439633  0.81247552  0.81038820    -0.34500
C281        C  0.36833241  0.80992236  0.80629501     0.01700
C282        C  0.36441148  0.78950264  0.78872533     0.07720
C283        C  0.38935253  0.78022775  0.78269114    -0.05380
H284        H  0.35332683  0.82180654  0.81571738     0.08390
H285        H  0.39421517  0.76420347  0.76946118     0.09590
Cu286      Cu  0.41260255  0.83887741  0.83555083     0.44170
Cu287      Cu  0.44806462  0.79154741  0.79515648     0.41990
Cu288      Cu  0.48349450  0.83913267  0.83532197     0.43880
N289        N  0.43502535  0.86249593  0.86005022    -0.34030
N290        N  0.46108219  0.86262646  0.85993874    -0.28290
C291        C  0.46975568  0.87984035  0.87814217    -0.04390
C292        C  0.44806119  0.89102465  0.89023849     0.07830
C293        C  0.42636075  0.87962068  0.87832329     0.01630
H294        H  0.49029818  0.88389279  0.88222447     0.09280
H295        H  0.40582123  0.88347096  0.88256498     0.08360
N296        N  0.50172758  0.81242610  0.81051059    -0.35480
N297        N  0.48902871  0.79462181  0.79629159    -0.27660
C298        C  0.50679788  0.78007196  0.78299211    -0.02900
C299        C  0.53186436  0.78925052  0.78905879     0.05710
C300        C  0.52778615  0.80982593  0.80651709     0.03800
H301        H  0.50183036  0.76392288  0.76994492     0.08910
H302        H  0.54267121  0.82214548  0.81560334     0.07740
N303        N  0.48894429  0.09921232  0.79502244    -0.26650
N304        N  0.50172370  0.08240030  0.81029704    -0.34500
C305        C  0.52779932  0.08567373  0.80694040     0.01700
C306        C  0.53177381  0.10570621  0.78881633     0.07720
C307        C  0.50664654  0.11385926  0.78172412    -0.05380
H308        H  0.54275218  0.07412564  0.81685196     0.08390
H309        H  0.50157820  0.12933598  0.76792404     0.09590
Cu310      Cu  0.48346088  0.05626415  0.83564344     0.44170
Cu311      Cu  0.44802830  0.10098560  0.79264308     0.41990
Cu312      Cu  0.41251267  0.05941188  0.83878229     0.43880
N313        N  0.46098059  0.03338211  0.86072932    -0.34030
N314        N  0.43497392  0.03453118  0.86190078    -0.28290
C315        C  0.42632677  0.01721776  0.88002603    -0.04390
C316        C  0.44799493  0.00470982  0.89077744     0.07830
C317        C  0.46964484  0.01539917  0.87815401     0.01630
H318        H  0.40582662  0.01402868  0.88499024     0.09280
H319        H  0.49014743  0.01046873  0.88131928     0.08360
N320        N  0.39431220  0.08438080  0.81224505    -0.35480
N321        N  0.40710814  0.09898955  0.79484003    -0.27660
C322        C  0.38943128  0.11215767  0.78008726    -0.02900
C323        C  0.36429332  0.10573191  0.78880989     0.05710
C324        C  0.36825508  0.08809656  0.80927779     0.03800
H325        H  0.39453539  0.12545345  0.76418210     0.08910
H326        H  0.35331223  0.07878816  0.82135425     0.07740
N327        N  0.48916952  0.79384059  0.09875947    -0.26650
N328        N  0.50197871  0.80975547  0.08250858    -0.34500
C329        C  0.52805750  0.80666296  0.08600922     0.01700
C330        C  0.53186461  0.78805937  0.10552772     0.07720
C331        C  0.50684559  0.78034923  0.11325631    -0.05380
H332        H  0.54313193  0.81737166  0.07532249     0.08390
H333        H  0.50187737  0.76589826  0.12817723     0.09590
Cu334      Cu  0.48375878  0.83568132  0.05688798     0.44170
Cu335      Cu  0.44825390  0.79125771  0.10023717     0.41990
Cu336      Cu  0.41286943  0.83863221  0.05989302     0.43880
N337        N  0.46131729  0.86078767  0.03396413    -0.34030
N338        N  0.43530583  0.86185788  0.03507934    -0.28290
C339        C  0.42662415  0.87984823  0.01766570    -0.04390
C340        C  0.44826858  0.89062032  0.00509482     0.07830
C341        C  0.46995052  0.87815561  0.01588046     0.01630
H342        H  0.40610857  0.88467430  0.01441785     0.09280
H343        H  0.49044637  0.88136031  0.01091436     0.08360
N344        N  0.39463805  0.81178005  0.08450586    -0.35480
N345        N  0.40736062  0.79391125  0.09858285    -0.27660
C346        C  0.38963683  0.77909818  0.11165294    -0.02900
C347        C  0.36455718  0.78827080  0.10573381     0.05710
C348        C  0.36858878  0.80905627  0.08848392     0.03800
H349        H  0.39467428  0.76287579  0.12458066     0.08910
H350        H  0.35370850  0.82152738  0.07963788     0.07740
N351        N  0.40720865  0.10047774  0.09974745    -0.26650
N352        N  0.39443558  0.08448393  0.08357399    -0.34500
C353        C  0.36834660  0.08768765  0.08691213     0.01700
C354        C  0.36439312  0.10657293  0.10617891     0.07720
C355        C  0.38948298  0.11426089  0.11388082    -0.05380
H356        H  0.35335507  0.07718349  0.07592425     0.08390
H357        H  0.39448391  0.12876439  0.12872225     0.09590
Cu358      Cu  0.41268337  0.05886352  0.05768173     0.44170
Cu359      Cu  0.44816950  0.10288617  0.10165816     0.41990
Cu360      Cu  0.48367007  0.05798365  0.05871922     0.43880
N361        N  0.43516961  0.03453198  0.03399029    -0.34030
N362        N  0.46122461  0.03421447  0.03434999    -0.28290
C363        C  0.46989496  0.01635093  0.01679828    -0.04390
C364        C  0.44820176  0.00490104  0.00490984     0.07830
C365        C  0.42650769  0.01685301  0.01623556     0.01630
H366        H  0.49043178  0.01202185  0.01303708     0.09280
H367        H  0.40596986  0.01301259  0.01193076     0.08360
N368        N  0.50191559  0.08396636  0.08432140    -0.35480
N369        N  0.48913913  0.10072840  0.09969501    -0.27660
C370        C  0.50686550  0.11506901  0.11333299    -0.02900
C371        C  0.53183841  0.10671598  0.10626067     0.05710
C372        C  0.52800797  0.08700469  0.08789858     0.03800
H373        H  0.50195598  0.13029090  0.12745936     0.08910
H374        H  0.54306725  0.07581487  0.07774554     0.07740
O375        O  0.46999641  0.91979961  0.91985981    -0.72700
O376        O  0.47007049  0.97558706  0.97578670    -0.73280
O377        O  0.47011006  0.91969574  0.97570547    -0.61900
O378        O  0.46995347  0.97557475  0.91994020    -0.70310
O379        O  0.42613649  0.97557017  0.92007302    -0.69860
O380        O  0.42629597  0.91973371  0.97589051    -0.61120
O381        O  0.42625934  0.97557917  0.97583657    -0.73620
O382        O  0.42618584  0.91972028  0.91997401    -0.72400
Cu383      Cu  0.47157231  0.94765983  0.94783234     1.04560
Cu384      Cu  0.42467733  0.94763130  0.94795322     1.04330
C385        C  0.44807742  0.91107658  0.91103241     0.93900
C386        C  0.44818103  0.98439407  0.98456802     0.93040
C387        C  0.44822354  0.91095864  0.98460125     0.85180
C388        C  0.44802700  0.98433988  0.91122244     0.91460
N389        N  0.22987338  0.15350113  0.17185795    -0.26650
N390        N  0.22790689  0.16984310  0.15163838    -0.34500
C391        C  0.24841343  0.16590028  0.13530759     0.01700
C392        C  0.26424950  0.14627074  0.14583892     0.07720
C393        C  0.25181048  0.13888916  0.16903567    -0.05380
H394        H  0.25169206  0.17677953  0.11723380     0.08390
H395        H  0.25848361  0.12431207  0.18313328     0.09590
Cu396      Cu  0.19860984  0.19814949  0.14819000     0.44170
Cu397      Cu  0.20278096  0.15199404  0.20246647     0.41990
Cu398      Cu  0.14994471  0.19998496  0.20048429     0.43880
N399        N  0.16994747  0.22711943  0.15145613    -0.34030
N400        N  0.15240447  0.22797399  0.17071789    -0.28290
C401        C  0.13762850  0.24981916  0.16793712    -0.04390
C402        C  0.14624060  0.26337584  0.14583130     0.07830
C403        C  0.16673571  0.24834903  0.13586208     0.01630
H404        H  0.12210113  0.25567272  0.18133336     0.09280
H405        H  0.17863126  0.25264862  0.11867847     0.08360
N406        N  0.15288085  0.17067145  0.22889476    -0.35480
N407        N  0.17247139  0.15349079  0.22988723    -0.27660
C408        C  0.16939145  0.13807584  0.25126023    -0.02900
C409        C  0.14671783  0.14585383  0.26423486     0.05710
C410        C  0.13671001  0.16652270  0.24952340     0.03800
H411        H  0.18284364  0.12258342  0.25711988     0.08910
H412        H  0.11939922  0.17818095  0.25391909     0.07740
N413        N  0.79676026  0.79408769  0.48906901    -0.26650
N414        N  0.81276020  0.81028609  0.50183217    -0.34500
C415        C  0.80916073  0.80734818  0.52791944     0.01700
C416        C  0.78983559  0.78854842  0.53179246     0.07720
C417        C  0.78231801  0.78056036  0.50680117    -0.05380
H418        H  0.81967310  0.81827157  0.54295150     0.08390
H419        H  0.76759265  0.76589586  0.50189623     0.09590
Cu420      Cu  0.83823099  0.83634628  0.48357761     0.44170
Cu421      Cu  0.79548185  0.79126129  0.44811753     0.41990
Cu422      Cu  0.83415217  0.84020296  0.41282557     0.43880
N423        N  0.86110170  0.86149673  0.46111097    -0.34030
N424        N  0.85961252  0.86293506  0.43513313    -0.28290
C425        C  0.87716430  0.88081727  0.42642529    -0.04390
C426        C  0.89018939  0.89114367  0.44801902     0.07830
C427        C  0.87953774  0.87851138  0.46969095     0.01630
H428        H  0.88019165  0.88589178  0.40591372     0.09280
H429        H  0.88483351  0.88137053  0.49016690     0.08360
N430        N  0.80981668  0.81304262  0.39455601    -0.35480
N431        N  0.79666325  0.79439181  0.40718428    -0.27660
C432        C  0.78404519  0.77927328  0.38938586    -0.02900
C433        C  0.78919367  0.78909057  0.36433050     0.05710
C434        C  0.80555864  0.81059163  0.36852485     0.03800
H435        H  0.77202451  0.76234211  0.39437164     0.08910
H436        H  0.81370388  0.82369343  0.35376110     0.07740
N437        N  0.09841356  0.79406543  0.48885427    -0.26650
N438        N  0.08538733  0.81274438  0.50151638    -0.34500
C439        C  0.08982411  0.81036161  0.52752951     0.01700
C440        C  0.10624668  0.78893723  0.53163643     0.07720
C441        C  0.11121723  0.77906186  0.50659653    -0.05380
H442        H  0.08180318  0.82346267  0.54233366     0.08390
H443        H  0.12329112  0.76220374  0.50159575     0.09590
Cu444      Cu  0.06127896  0.84004783  0.48324978     0.44170
Cu445      Cu  0.09925184  0.79075950  0.44794446     0.41990
Cu446      Cu  0.05967114  0.83849472  0.41230839     0.43880
N447        N  0.03623920  0.86306396  0.46082026    -0.34030
N448        N  0.03560910  0.86244567  0.43477602    -0.28290
C449        C  0.01705140  0.87926841  0.42614305    -0.04390
C450        C  0.00545746  0.89094174  0.44784597     0.07830
C451        C  0.01806617  0.88026746  0.46951010     0.01630
H452        H  0.01237437  0.88271141  0.40560654     0.09280
H453        H  0.01434295  0.88465380  0.49005925     0.08360
N454        N  0.08467924  0.81193734  0.39421473    -0.35480
N455        N  0.09881968  0.79415885  0.40703134    -0.27660
C456        C  0.11246414  0.77977183  0.38939763    -0.02900
C457        C  0.10665694  0.78906843  0.36437871     0.05710
C458        C  0.08899790  0.80944226  0.36819076     0.03800
H459        H  0.12569475  0.76379718  0.39440032     0.08910
H460        H  0.07968959  0.82136643  0.35312948     0.07740
N461        N  0.79279430  0.09637615  0.48910753    -0.26650
N462        N  0.81152405  0.08342678  0.50179142    -0.34500
C463        C  0.80945402  0.08824392  0.52775053     0.01700
C464        C  0.78829229  0.10495279  0.53178977     0.07720
C465        C  0.77819398  0.10972592  0.50680836    -0.05380
H466        H  0.82255918  0.08027764  0.54258138     0.08390
H467        H  0.76145617  0.12197517  0.50186199     0.09590
Cu468      Cu  0.83902521  0.05949299  0.48369205     0.44170
Cu469      Cu  0.78892605  0.09612220  0.44818139     0.41990
Cu470      Cu  0.84147301  0.06234818  0.41303075     0.43880
N471        N  0.86348808  0.03596129  0.46124400    -0.34030
N472        N  0.86442113  0.03700555  0.43522609    -0.28290
C473        C  0.88166874  0.01890122  0.42645843    -0.04390
C474        C  0.89207277  0.00594139  0.44805864     0.07830
C475        C  0.88016505  0.01723376  0.46979439     0.01630
H476        H  0.88621913  0.01541646  0.40590486     0.09280
H477        H  0.88327130  0.01216179  0.49029481     0.08360
N478        N  0.81327584  0.08550004  0.39485091    -0.35480
N479        N  0.79316965  0.09641998  0.40729497    -0.27660
C480        C  0.77768692  0.10852117  0.38946682    -0.02900
C481        C  0.78879567  0.10548638  0.36459384     0.05710
C482        C  0.81144446  0.09083324  0.36896171     0.03800
H483        H  0.75966366  0.11879246  0.39433400     0.08910
H484        H  0.82576750  0.08460761  0.35445061     0.07740
N485        N  0.09841674  0.10137725  0.48887978    -0.26650
N486        N  0.08363951  0.08416476  0.50175929    -0.34500
C487        C  0.08789886  0.08672245  0.52777930     0.01700
C488        C  0.10638897  0.10642976  0.53158530     0.07720
C489        C  0.11265341  0.11526344  0.50645839    -0.05380
H490        H  0.07799862  0.07525507  0.54283395     0.08390
H491        H  0.12655303  0.13064625  0.50132891     0.09590
Cu492      Cu  0.05854153  0.05776153  0.48362543     0.44170
Cu493      Cu  0.09850346  0.10491191  0.44797199     0.41990
Cu494      Cu  0.06351318  0.05328765  0.41284855     0.43880
N495        N  0.03565036  0.03285497  0.46103214    -0.34030
N496        N  0.03744869  0.03115067  0.43508945    -0.28290
C497        C  0.01960783  0.01358849  0.42633606    -0.04390
C498        C  0.00610464  0.00375673  0.44787419     0.07830
C499        C  0.01675715  0.01632992  0.46954727     0.01630
H500        H  0.01673041  0.00837661  0.40584264     0.09280
H501        H  0.01116511  0.01375705  0.48998651     0.08360
N502        N  0.08691732  0.08128301  0.39459376    -0.35480
N503        N  0.09806739  0.10125158  0.40708871    -0.27660
C504        C  0.10988136  0.11698152  0.38927394    -0.02900
C505        C  0.10655322  0.10612155  0.36432082     0.05710
C506        C  0.09194286  0.08337283  0.36866730     0.03800
H507        H  0.12013489  0.13503376  0.39423468     0.08910
H508        H  0.08551305  0.06914858  0.35411978     0.07740
O509        O  0.92001195  0.91977958  0.46986426    -0.72300
O510        O  0.97602646  0.97546533  0.46975476    -0.73280
O511        O  0.92025455  0.97569904  0.46986356    -0.61900
O512        O  0.97590614  0.91972118  0.46978347    -0.70310
O513        O  0.97552328  0.91940758  0.42597446    -0.69860
O514        O  0.92054674  0.97609991  0.42605597    -0.61120
O515        O  0.97636895  0.97511987  0.42594082    -0.73620
O516        O  0.91958076  0.92017589  0.42605732    -0.72400
Cu517      Cu  0.94802191  0.94764653  0.47135579     1.04560
Cu518      Cu  0.94796829  0.94768074  0.42446486     1.04330
C519        C  0.91090559  0.91129324  0.44797442     0.93900
C520        C  0.98515025  0.98389518  0.44784429     0.93040
C521        C  0.91183033  0.98488528  0.44798218     0.85180
C522        C  0.98459499  0.91089034  0.44786847     0.91460
C523        C  0.13645354  0.13561246  0.28966896    -0.04690
C524        C  0.15194324  0.13746851  0.31267851    -0.01810
C525        C  0.14245523  0.12746909  0.33685739     0.03180
C526        C  0.11681711  0.11632954  0.33853979    -0.04690
C527        C  0.10118256  0.11488893  0.31533416    -0.01800
C528        C  0.11117046  0.12410802  0.29101279     0.03180
C529        C  0.17749418  0.15038627  0.31164373     0.37830
C530        C  0.07445820  0.10466872  0.31627192     0.37820
C531        C  0.09564950  0.12110558  0.26714026     0.36240
C532        C  0.15973508  0.12795681  0.35965243     0.36240
N533        N  0.08335236  0.11855494  0.24808284    -0.38580
N534        N  0.17367568  0.12846851  0.37771779    -0.38580
N535        N  0.05314105  0.09648673  0.31675636    -0.38020
N536        N  0.19778981  0.16082192  0.31082189    -0.38030
C537        C  0.33867593  0.11668915  0.11608803    -0.04690
C538        C  0.31888373  0.09897187  0.12466244    -0.01810
C539        C  0.29447170  0.10859570  0.13393988     0.03180
C540        C  0.28973040  0.13608801  0.13523309    -0.04690
C541        C  0.30957100  0.15378770  0.12661292    -0.01800
C542        C  0.33374791  0.14411966  0.11681413     0.03180
C543        C  0.32379141  0.07075415  0.12464729     0.37830
C544        C  0.30562771  0.18208382  0.12852272     0.37820
C545        C  0.35322760  0.16251558  0.10666366     0.36240
C546        C  0.27399438  0.09001065  0.14143390     0.36240
N547        N  0.36870476  0.17719456  0.09848746    -0.38580
N548        N  0.25771084  0.07512563  0.14737078    -0.38580
N549        N  0.30259357  0.20467181  0.12998798    -0.38020
N550        N  0.32764207  0.04824335  0.12466741    -0.38030
C551        C  0.11669715  0.33807136  0.11677051    -0.04690
C552        C  0.09910873  0.31711160  0.12241336    -0.01810
C553        C  0.10880120  0.29265315  0.13151465     0.03180
C554        C  0.13613691  0.28899678  0.13557635    -0.04690
C555        C  0.15372008  0.30996461  0.12999417    -0.01800
C556        C  0.14408157  0.33424585  0.12035910     0.03180
C557        C  0.07086904  0.32078342  0.11956102     0.37830
C558        C  0.18175353  0.30697277  0.13489213     0.37820
C559        C  0.16257132  0.35496901  0.11331537     0.36240
C560        C  0.09056218  0.27100047  0.13594884     0.36240
N561        N  0.17735463  0.37143850  0.10763892    -0.38580
N562        N  0.07598678  0.25375164  0.13942337    -0.38580
N563        N  0.20412028  0.30468376  0.13880087    -0.38020
N564        N  0.04833867  0.32361902  0.11729296    -0.38030
C565        C  0.55744414  0.11672392  0.11617387    -0.04690
C566        C  0.56712453  0.14127565  0.10753599    -0.01810
C567        C  0.59114939  0.15125924  0.11751686     0.03180
C568        C  0.60658222  0.13601018  0.13533537    -0.04690
C569        C  0.59710549  0.11066769  0.14291722    -0.01800
C570        C  0.57238590  0.10150337  0.13391774     0.03180
C571        C  0.55251489  0.15604920  0.08782722     0.37830
C572        C  0.61292965  0.09324768  0.15917855     0.37820
C573        C  0.56204939  0.07643881  0.14323546     0.36240
C574        C  0.59909633  0.17766716  0.10984789     0.36240
N575        N  0.55367862  0.05655894  0.15076822    -0.38580
N576        N  0.60511629  0.19875859  0.10343277    -0.38580
N577        N  0.62530605  0.07911489  0.17214882    -0.38020
N578        N  0.54096964  0.16764013  0.07191374    -0.38030
C579        C  0.76004469  0.28859337  0.13542825    -0.04690
C580        C  0.78251830  0.28952741  0.11921893    -0.01810
C581        C  0.79250287  0.31400696  0.11034552     0.03180
C582        C  0.77907196  0.33794168  0.11633925    -0.04690
C583        C  0.75592703  0.33658316  0.13217037    -0.01800
C584        C  0.74703591  0.31213422  0.14223226     0.03180
C585        C  0.79535520  0.26508985  0.11159222     0.37830
C586        C  0.74033198  0.35994554  0.13753053     0.37820
C587        C  0.72447234  0.31116096  0.15983255     0.36240
C588        C  0.81721522  0.31411800  0.09595029     0.36240
N589        N  0.70662180  0.31038990  0.17403206    -0.38580
N590        N  0.83693861  0.31378386  0.08446213    -0.38580
N591        N  0.72765494  0.37839160  0.14201223    -0.38020
N592        N  0.80540942  0.24556088  0.10539384    -0.38030
C593        C  0.75977330  0.13602595  0.29011950    -0.04690
C594        C  0.75863004  0.15166802  0.31305663    -0.01810
C595        C  0.76845004  0.14193728  0.33720147     0.03180
C596        C  0.77887091  0.11601711  0.33884502    -0.04690
C597        C  0.77984852  0.10033633  0.31565314    -0.01800
C598        C  0.77062848  0.11047516  0.29139824     0.03180
C599        C  0.74677554  0.17770722  0.31190712     0.37830
C600        C  0.78957142  0.07343173  0.31658830     0.37820
C601        C  0.77281708  0.09478990  0.26755239     0.36240
C602        C  0.76854884  0.15919954  0.36001444     0.36240
N603        N  0.77473254  0.08234090  0.24852024    -0.38580
N604        N  0.76853479  0.17311379  0.37810901    -0.38580
N605        N  0.79736680  0.05197495  0.31712147    -0.38020
N606        N  0.73720024  0.19840529  0.31094254    -0.38030
C607        C  0.75978616  0.60555618  0.13595790    -0.04690
C608        C  0.78695812  0.59936913  0.13869799    -0.01810
C609        C  0.79681772  0.57494214  0.12970060     0.03180
C610        C  0.77999950  0.55682230  0.11698275    -0.04690
C611        C  0.75326994  0.56325150  0.11310614    -0.01800
C612        C  0.74303036  0.58720663  0.12294202     0.03180
C613        C  0.80524119  0.61829322  0.14998465     0.37830
C614        C  0.73639918  0.54545005  0.09830113     0.37820
C615        C  0.71499793  0.59219588  0.12025084     0.36240
C616        C  0.82428298  0.56815087  0.13406532     0.36240
N617        N  0.69261174  0.59596757  0.11789730    -0.38580
N618        N  0.84613129  0.56261583  0.13761907    -0.38580
N619        N  0.72300049  0.53139418  0.08628603    -0.38020
N620        N  0.82002307  0.63321385  0.15896478    -0.38030
C621        C  0.60675959  0.76030117  0.13553054    -0.04690
C622        C  0.58876100  0.77373885  0.15229217    -0.01810
C623        C  0.56457276  0.78323626  0.14229050     0.03180
C624        C  0.55748353  0.77848317  0.11586166    -0.04690
C625        C  0.57503898  0.76494288  0.09914234    -0.01800
C626        C  0.59973460  0.75637582  0.10868016     0.03180
C627        C  0.59435131  0.77722693  0.18012159     0.37830
C628        C  0.56740506  0.75929007  0.07212566     0.37820
C629        C  0.61803579  0.74431114  0.09030569     0.36240
C630        C  0.54724334  0.79868525  0.15903733     0.36240
N631        N  0.63242334  0.73466111  0.07545248    -0.38580
N632        N  0.53351592  0.81121407  0.17227213    -0.38580
N633        N  0.56123065  0.75467355  0.05064513    -0.38020
N634        N  0.59853505  0.78020729  0.20236174    -0.38030
C635        C  0.75970817  0.76021801  0.28945413    -0.04690
C636        C  0.78634190  0.76781602  0.29197933    -0.01810
C637        C  0.79607901  0.77698155  0.31640144     0.03180
C638        C  0.77906162  0.77907345  0.33851199    -0.04690
C639        C  0.75222150  0.77173830  0.33570957    -0.01800
C640        C  0.74272141  0.76210519  0.31138838     0.03180
C641        C  0.80364536  0.76674997  0.26919942     0.37830
C642        C  0.73394856  0.77483380  0.35750143     0.37820
C643        C  0.71552016  0.75345295  0.30912908     0.36240
C644        C  0.82385853  0.78348124  0.31871381     0.36240
N645        N  0.69386605  0.74644082  0.30735297    -0.38580
N646        N  0.84602737  0.78869073  0.32036481    -0.38580
N647        N  0.71927942  0.77724255  0.37481728    -0.38020
N648        N  0.81739372  0.76601377  0.25099859    -0.38030
C649        C  0.13596374  0.60626725  0.13568448    -0.04690
C650        C  0.15348267  0.58507730  0.13085673    -0.01810
C651        C  0.14389066  0.56080191  0.12112777     0.03180
C652        C  0.11658012  0.55710985  0.11685416    -0.04690
C653        C  0.09903896  0.57822458  0.12186246    -0.01800
C654        C  0.10870908  0.60273501  0.13089272     0.03180
C655        C  0.18139176  0.58779872  0.13660163     0.37830
C656        C  0.07084064  0.57468657  0.11841039     0.37820
C657        C  0.09052875  0.62455611  0.13443378     0.36240
C658        C  0.16240091  0.53995627  0.11464999     0.36240
N659        N  0.07598952  0.64192649  0.13720344    -0.38580
N660        N  0.17720861  0.52340036  0.10941881    -0.38580
N661        N  0.04834080  0.57197708  0.11567326    -0.38020
N662        N  0.20366605  0.58983783  0.14115547    -0.38030
C663        C  0.29001763  0.75957502  0.13621268    -0.04690
C664        C  0.31170275  0.76353725  0.15330890    -0.01810
C665        C  0.33578997  0.77336782  0.14344615     0.03180
C666        C  0.33885986  0.77845921  0.11618460    -0.04690
C667        C  0.31721505  0.77428973  0.09903198    -0.01800
C668        C  0.29284512  0.76527179  0.10905571     0.03180
C669        C  0.30970178  0.75667182  0.18102955     0.37830
C670        C  0.32004435  0.77850601  0.07085846     0.37820
C671        C  0.27048333  0.76257788  0.09137935     0.36240
C672        C  0.35709552  0.77903050  0.16170946     0.36240
N673        N  0.25269122  0.76050427  0.07723164    -0.38580
N674        N  0.37400659  0.78356079  0.17635622    -0.38580
N675        N  0.32217042  0.78184483  0.04837716    -0.38020
N676        N  0.30820486  0.75118611  0.20313634    -0.38030
C677        C  0.11659604  0.77892419  0.33876445    -0.04690
C678        C  0.11261940  0.75227426  0.33182352    -0.01810
C679        C  0.12245331  0.74240539  0.30773597     0.03180
C680        C  0.13559731  0.75940337  0.28975065    -0.04690
C681        C  0.13880269  0.78639694  0.29653373    -0.01800
C682        C  0.12974638  0.79593254  0.32106995     0.03180
C683        C  0.09758694  0.73510210  0.34915288     0.37830
C684        C  0.15067651  0.80482128  0.27809770     0.37820
C685        C  0.13460487  0.82321010  0.32838786     0.36240
C686        C  0.11961148  0.71446577  0.30217541     0.36240
N687        N  0.13857924  0.84492726  0.33424853    -0.38580
N688        N  0.11716095  0.69214937  0.29795208    -0.38580
N689        N  0.16014985  0.81966665  0.26354473    -0.38020
N690        N  0.08544201  0.72149200  0.36289894    -0.38030
C691        C  0.13576264  0.60655626  0.76071549    -0.04690
C692        C  0.14983762  0.58319924  0.75552153    -0.01810
C693        C  0.14070700  0.55875565  0.76535897     0.03180
C694        C  0.11654306  0.55722958  0.77949617    -0.04690
C695        C  0.10220068  0.58091402  0.78405917    -0.01800
C696        C  0.11214810  0.60541605  0.77523092     0.03180
C697        C  0.17362017  0.58430611  0.73962484     0.37830
C698        C  0.07669129  0.58042327  0.79699312     0.37820
C699        C  0.09821736  0.62967022  0.78136699     0.36240
C700        C  0.15698037  0.53554159  0.76158853     0.36240
N701        N  0.08727509  0.64905797  0.78639223    -0.38580
N702        N  0.17014980  0.51716569  0.75844468    -0.38580
N703        N  0.05633825  0.58038322  0.80732941    -0.38020
N704        N  0.19246039  0.58517175  0.72677351    -0.38030
C705        C  0.13653251  0.75960994  0.60606797    -0.04690
C706        C  0.10975192  0.76696020  0.60373293    -0.01810
C707        C  0.09977801  0.77626134  0.57944446     0.03180
C708        C  0.11666309  0.77901820  0.55734391    -0.04690
C709        C  0.14362536  0.77231141  0.55995413    -0.01800
C710        C  0.15337290  0.76225344  0.58399282     0.03180
C711        C  0.09248333  0.76569202  0.62653160     0.37830
C712        C  0.16176789  0.77651456  0.53821381     0.37820
C713        C  0.18066964  0.75380821  0.58558923     0.36240
C714        C  0.07188025  0.78222672  0.57720121     0.36240
N715        N  0.20243038  0.74705341  0.58679773    -0.38580
N716        N  0.04962158  0.78698241  0.57554509    -0.38580
N717        N  0.17634081  0.77986023  0.52096496    -0.38020
N718        N  0.07867261  0.76479229  0.64468212    -0.38030
C719        C  0.28958048  0.75961116  0.76046934    -0.04690
C720        C  0.29767963  0.78583476  0.75459650    -0.01810
C721        C  0.32232737  0.79535134  0.76342830     0.03180
C722        C  0.33874160  0.77930190  0.77907149    -0.04690
C723        C  0.33046739  0.75364903  0.78586706    -0.01800
C724        C  0.30634345  0.74359727  0.77623257     0.03180
C725        C  0.28051592  0.80363226  0.74019746     0.37830
C726        C  0.34653108  0.73780099  0.80349466     0.37820
C727        C  0.29957305  0.71639772  0.78205862     0.36240
C728        C  0.33110752  0.82158315  0.75590275     0.36240
N729        N  0.29443283  0.69467665  0.78695121    -0.38580
N730        N  0.33818654  0.84243140  0.74979560    -0.38580
N731        N  0.35925758  0.72531096  0.81773803    -0.38020
N732        N  0.26703049  0.81801610  0.72869373    -0.38030
C733        C  0.13568665  0.13597061  0.60622993    -0.04690
C734        C  0.12638573  0.15360516  0.58664874    -0.01810
C735        C  0.11646042  0.14390026  0.56253695     0.03180
C736        C  0.11652494  0.11652842  0.55724280    -0.04690
C737        C  0.12595484  0.09886964  0.57667329    -0.01800
C738        C  0.13511392  0.10848910  0.60115150     0.03180
C739        C  0.12770439  0.18191992  0.59072624     0.37830
C740        C  0.12695234  0.07074186  0.57132989     0.37820
C741        C  0.14318420  0.08985559  0.62134047     0.36240
C742        C  0.10531371  0.16219560  0.54353851     0.36240
N743        N  0.14957415  0.07490715  0.63737320    -0.38580
N744        N  0.09633986  0.17678221  0.52844600    -0.38580
N745        N  0.12781120  0.04830399  0.56714818    -0.38020
N746        N  0.12867150  0.20453010  0.59382314    -0.38030
C747        C  0.28964552  0.13563173  0.76002240    -0.04690
C748        C  0.29285300  0.10838793  0.76495473    -0.01810
C749        C  0.31724857  0.09855904  0.77405503     0.03180
C750        C  0.33858098  0.11599155  0.77885604    -0.04690
C751        C  0.33513763  0.14334217  0.77432589    -0.01800
C752        C  0.31093424  0.15303435  0.76464422     0.03180
C753        C  0.27079561  0.09045531  0.76137169     0.37830
C754        C  0.35614876  0.16183076  0.78041377     0.37820
C755        C  0.30829597  0.18092484  0.75867480     0.36240
C756        C  0.32042478  0.07033223  0.77772454     0.36240
N757        N  0.30625360  0.20315751  0.75385986    -0.38580
N758        N  0.32282025  0.04780454  0.78064378    -0.38580
N759        N  0.37284254  0.17664795  0.78526697    -0.38020
N760        N  0.25320043  0.07615148  0.75861205    -0.38030
C761        C  0.13588865  0.28906810  0.76047448    -0.04690
C762        C  0.15332881  0.31006282  0.76652589    -0.01810
C763        C  0.14343325  0.33435817  0.77589216     0.03180
C764        C  0.11599125  0.33815856  0.77881269    -0.04690
C765        C  0.09855980  0.31719593  0.77284806    -0.01800
C766        C  0.10844623  0.29274840  0.76394347     0.03180
C767        C  0.18148795  0.30712617  0.76239872     0.37830
C768        C  0.07027668  0.32088500  0.77522915     0.37820
C769        C  0.09023814  0.27116489  0.75909877     0.36240
C770        C  0.16166272  0.35515076  0.78337132     0.36240
N771        N  0.07565071  0.25400643  0.75526122    -0.38580
N772        N  0.17623341  0.37166345  0.78944081    -0.38580
N773        N  0.04772072  0.32377782  0.77712977    -0.38020
N774        N  0.20396472  0.30488347  0.75914411    -0.38030
C775        C  0.60647815  0.13510827  0.75945869    -0.04690
C776        C  0.58567161  0.12925711  0.74181902    -0.01810
C777        C  0.56150348  0.11928709  0.75136580     0.03180
C778        C  0.55750522  0.11581733  0.77875524    -0.04690
C779        C  0.57827732  0.12183525  0.79642635    -0.01800
C780        C  0.60271464  0.13109816  0.78679491     0.03180
C781        C  0.58867771  0.13423561  0.71379255     0.37830
C782        C  0.57444879  0.11923170  0.82467414     0.37820
C783        C  0.62423930  0.13573272  0.80509487     0.36240
C784        C  0.54110835  0.11176397  0.73273631     0.36240
N785        N  0.64138600  0.13934381  0.81972324    -0.38580
N786        N  0.52490848  0.10572481  0.71783029    -0.38580
N787        N  0.57151799  0.11717922  0.84721786    -0.38020
N788        N  0.59096836  0.13820641  0.69143259    -0.38030
C789        C  0.77867962  0.11547676  0.55750059    -0.04690
C790        C  0.77379794  0.14277359  0.56064211    -0.01810
C791        C  0.76440703  0.15266498  0.58490450     0.03180
C792        C  0.76034834  0.13546903  0.60650590    -0.04690
C793        C  0.76571493  0.10826433  0.60353937    -0.01800
C794        C  0.77459887  0.09828295  0.57913371     0.03180
C795        C  0.77925393  0.16096995  0.53921403     0.37830
C796        C  0.76281504  0.09050530  0.62582508     0.37820
C797        C  0.77884041  0.07010774  0.57624331     0.36240
C798        C  0.75815148  0.18050613  0.58726075     0.36240
N799        N  0.78223221  0.04763173  0.57403597    -0.38580
N800        N  0.75313668  0.20270915  0.58907526    -0.38580
N801        N  0.76056487  0.07631688  0.64357738    -0.38020
N802        N  0.78365939  0.17554776  0.52219405    -0.38030
C803        C  0.76031177  0.28929021  0.76007169    -0.04690
C804        C  0.76438820  0.31088936  0.74289085    -0.01810
C805        C  0.77392041  0.33513001  0.75275222     0.03180
C806        C  0.77899423  0.33822496  0.78001041    -0.04690
C807        C  0.77495113  0.31654862  0.79718378    -0.01800
C808        C  0.76584905  0.29218134  0.78722100     0.03180
C809        C  0.75802077  0.30852920  0.71508884     0.37830
C810        C  0.77944697  0.31934667  0.82530956     0.37820
C811        C  0.76287444  0.26984910  0.80491797     0.36240
C812        C  0.77929095  0.35658070  0.73454956     0.36240
N813        N  0.76057775  0.25205220  0.81905033    -0.38580
N814        N  0.78359901  0.37362151  0.71996166    -0.38580
N815        N  0.78305413  0.32146767  0.84774615    -0.38020
N816        N  0.75291633  0.30669566  0.69292081    -0.38030
C817        C  0.60684770  0.76051407  0.75990075    -0.04690
C818        C  0.58588639  0.76556580  0.74223304    -0.01810
C819        C  0.56152225  0.77513881  0.75169813     0.03180
C820        C  0.55766527  0.77931490  0.77901599    -0.04690
C821        C  0.57867283  0.77418879  0.79668235    -0.01800
C822        C  0.60315595  0.76503519  0.78714220     0.03180
C823        C  0.58902360  0.76018839  0.71430381     0.37830
C824        C  0.57505823  0.77762540  0.82486196     0.37820
C825        C  0.62481574  0.76097721  0.80541070     0.36240
C826        C  0.54075083  0.78149292  0.73307123     0.36240
N827        N  0.64209248  0.75779535  0.81997728    -0.38580
N828        N  0.52423424  0.78658915  0.71817034    -0.38580
N829        N  0.57230677  0.78037363  0.84735052    -0.38020
N830        N  0.59144149  0.75587261  0.69202576    -0.38030
C831        C  0.75979615  0.60575741  0.75968722    -0.04690
C832        C  0.76797641  0.60377584  0.78623836    -0.01810
C833        C  0.77717214  0.57949779  0.79634798     0.03180
C834        C  0.77894473  0.55703481  0.77978746    -0.04690
C835        C  0.77135745  0.55929800  0.75301093    -0.01800
C836        C  0.76144812  0.58336894  0.74316610     0.03180
C837        C  0.76764857  0.62693346  0.80308081     0.37830
C838        C  0.77449335  0.53716838  0.73513072     0.37820
C839        C  0.75213075  0.58474359  0.71613560     0.36240
C840        C  0.78404607  0.57766949  0.82406989     0.36240
N841        N  0.74464142  0.58580126  0.69460376    -0.38580
N842        N  0.78953763  0.57635471  0.84618579    -0.38580
N843        N  0.77697844  0.51960897  0.72075765    -0.38020
N844        N  0.76751465  0.64538537  0.81652586    -0.38030
C845        C  0.75987087  0.76034787  0.60651007    -0.04690
C846        C  0.74315672  0.77409170  0.58873467    -0.01810
C847        C  0.75312951  0.78368793  0.56456570     0.03180
C848        C  0.77955785  0.77895998  0.55744114    -0.04690
C849        C  0.79630886  0.76537988  0.57497071    -0.01800
C850        C  0.78669887  0.75647013  0.59953076     0.03180
C851        C  0.71540716  0.77777178  0.59459972     0.37830
C852        C  0.82341232  0.76005065  0.56745358     0.37820
C853        C  0.80489370  0.74405233  0.61778968     0.36240
C854        C  0.73634154  0.79914521  0.54727958     0.36240
N855        N  0.81956028  0.73414408  0.63219942    -0.38580
N856        N  0.72304237  0.81165931  0.53359137    -0.38580
N857        N  0.84497744  0.75572777  0.56137865    -0.38020
N858        N  0.69324690  0.78087508  0.59908902    -0.38030
loop_ 
_geom_bond_atom_site_label_1 
_geom_bond_atom_site_label_2 
_geom_bond_distance 
_geom_bond_site_symmetry_2 
_ccdc_geom_bond_type 
N1            N2   1.323       .  A
N1            C5   1.345       .  A
N1           Cu9   2.075       .  S
N2            C3   1.345       .  A
N2           Cu8   2.077       .  S
C3            C4   1.385       .  A
C3            H6   1.083       .  S
C4            C5   1.384       .  A
C4          C817   1.489       .  S
C5            H7   1.083       .  S
Cu8          N11   2.076       .  S
Cu9          N19   2.074       .  S
Cu10         N12   2.072       .  S
Cu10         N18   2.072       .  S
N11          N12   1.321       .  A
N11          C15   1.345       .  A
N12          C13   1.344       .  A
C13          C14   1.388       .  A
C13          H16   1.082       .  S
C14          C15   1.389       .  A
C14         C845   1.498       .  S
C15          H17   1.082       .  S
N18          N19   1.322       .  A
N18          C22   1.344       .  A
N19          C20   1.345       .  A
C20          C21   1.385       .  A
C20          H23   1.082       .  S
C21          C22   1.384       .  A
C21         C831   1.488       .  S
C22          H24   1.082       .  S
N25          N26   1.322       .  A
N25          C29   1.345       .  A
N25         Cu33   2.074       .  S
N26          C27   1.344       .  A
N26         Cu32   2.073       .  S
C27          C28   1.385       .  A
C27          H30   1.082       .  S
C28          C29   1.385       .  A
C28         C775   1.490       .  S
C29          H31   1.082       .  S
Cu32         N35   2.073       .  S
Cu33         N43   2.074       .  S
Cu34         N36   2.074       .  S
Cu34         N42   2.074       .  S
N35          N36   1.322       .  A
N35          C39   1.345       .  A
N36          C37   1.345       .  A
C37          C38   1.385       .  A
C37          H40   1.082       .  S
C38          C39   1.384       .  A
C38         C792   1.489       .  S
C39          H41   1.082       .  S
N42          N43   1.322       .  A
N42          C46   1.345       .  A
N43          C44   1.345       .  A
C44          C45   1.384       .  A
C44          H47   1.082       .  S
C45          C46   1.384       .  A
C45         C803   1.488       .  S
C46          H48   1.082       .  S
N49          N50   1.322       .  A
N49          C53   1.345       .  A
N49         Cu57   2.075       .  S
N50          C51   1.345       .  A
N50         Cu56   2.073       .  S
C51          C52   1.383       .  A
C51          H54   1.082       .  S
C52          C53   1.384       .  A
C52         C747   1.487       .  S
C53          H55   1.082       .  S
Cu56         N59   2.072       .  S
Cu57         N67   2.075       .  S
Cu58         N60   2.075       .  S
Cu58         N66   2.075       .  S
N59          N60   1.321       .  A
N59          C63   1.345       .  A
N60          C61   1.344       .  A
C61          C62   1.387       .  A
C61          H64   1.081       .  S
C62          C63   1.386       .  A
C62         C733   1.494       .  S
C63          H65   1.082       .  S
N66          N67   1.322       .  A
N66          C70   1.345       .  A
N67          C68   1.345       .  A
C68          C69   1.386       .  A
C68          H71   1.082       .  S
C69          C70   1.386       .  A
C69         C761   1.493       .  S
C70          H72   1.082       .  S
N73          N74   1.320       .  A
N73          C77   1.345       .  A
N73         Cu81   2.079       .  S
N74          C75   1.344       .  A
N74         Cu80   2.072       .  S
C75          C76   1.389       .  A
C75          H78   1.081       .  S
C76          C77   1.391       .  A
C76         C719   1.502       .  S
C77          H79   1.081       .  S
Cu80         N83   2.072       .  S
Cu81         N91   2.080       .  S
Cu82         N84   2.075       .  S
Cu82         N90   2.075       .  S
N83          N84   1.322       .  A
N83          C87   1.344       .  A
N84          C85   1.345       .  A
C85          C86   1.386       .  A
C85          H88   1.082       .  S
C86          C87   1.385       .  A
C86         C705   1.490       .  S
C87          H89   1.082       .  S
N90          N91   1.324       .  A
N90          C94   1.345       .  A
N91          C92   1.346       .  A
C92          C93   1.382       .  A
C92          H95   1.082       .  S
C93          C94   1.381       .  A
C93         C691   1.482       .  S
C94          H96   1.082       .  S
N97          N98   1.322       .  A
N97         C101   1.345       .  A
N97        Cu105   2.077       .  S
N98          C99   1.344       .  A
N98        Cu104   2.070       .  S
C99         C100   1.385       .  A
C99         H102   1.082       .  S
C100        C101   1.386       .  A
C100        C649   1.491       .  S
C101        H103   1.082       .  S
Cu104       N107   2.070       .  S
Cu105       N115   2.076       .  S
Cu106       N108   2.072       .  S
Cu106       N114   2.072       .  S
N107        N108   1.321       .  A
N107        C111   1.344       .  A
N108        C109   1.344       .  A
C109        C110   1.385       .  A
C109        H112   1.082       .  S
C110        C111   1.385       .  A
C110        C663   1.490       .  S
C111        H113   1.082       .  S
N114        N115   1.320       .  A
N114        C118   1.344       .  A
N115        C116   1.345       .  A
C116        C117   1.389       .  A
C116        H119   1.081       .  S
C117        C118   1.388       .  A
C117        C680   1.499       .  S
C118        H120   1.081       .  S
N121        N122   1.320       .  A
N121        C125   1.344       .  A
N121       Cu129   2.074       .  S
N122        C123   1.344       .  A
N122       Cu128   2.071       .  S
C123        C124   1.389       .  A
C123        H126   1.081       .  S
C124        C125   1.390       .  A
C124        C607   1.500       .  S
C125        H127   1.081       .  S
Cu128       N131   2.071       .  S
Cu129       N139   2.075       .  S
Cu130       N132   2.078       .  S
Cu130       N138   2.079       .  S
N131        N132   1.320       .  A
N131        C135   1.343       .  A
N132        C133   1.345       .  A
C133        C134   1.391       .  A
C133        H136   1.081       .  S
C134        C135   1.389       .  A
C134        C621   1.502       .  S
C135        H137   1.081       .  S
N138        N139   1.324       .  A
N138        C142   1.346       .  A
N139        C140   1.345       .  A
C140        C141   1.381       .  A
C140        H143   1.082       .  S
C141        C142   1.383       .  A
C141        C635   1.484       .  S
C142        H144   1.082       .  S
N145        N146   1.320       .  A
N145        C149   1.344       .  A
N145       Cu153   2.076       .  S
N146        C147   1.345       .  A
N146       Cu152   2.080       .  S
C147        C148   1.392       .  A
C147        H150   1.081       .  S
C148        C149   1.391       .  A
C148        C568   1.506       .  S
C149        H151   1.081       .  S
Cu152       N155   2.081       .  S
Cu153       N163   2.076       .  S
Cu154       N156   2.073       .  S
Cu154       N162   2.073       .  S
N155        N156   1.323       .  A
N155        C159   1.347       .  A
N156        C157   1.345       .  A
C157        C158   1.380       .  A
C157        H160   1.082       .  S
C158        C159   1.382       .  A
C158        C579   1.482       .  S
C159        H161   1.082       .  S
N162        N163   1.322       .  A
N162        C166   1.345       .  A
N163        C164   1.346       .  A
C164        C165   1.382       .  A
C164        H167   1.082       .  S
C165        C166   1.382       .  A
C165        C593   1.483       .  S
C166        H168   1.082       .  S
N169        N170   1.322       .  A
N169        C173   1.346       .  A
N169       Cu177   2.083       .  S
N170        C171   1.343       .  A
N170       Cu176   2.065       .  S
C171        C172   1.383       .  A
C171        H174   1.082       .  S
C172        C173   1.388       .  A
C172        C806   1.491       .  S
C173        H175   1.081       .  S
Cu176       N179   2.064       .  S
Cu177       N187   2.083       .  S
Cu178       N180   2.065       .  S
Cu178       N186   2.066       .  S
N179        N180   1.321       .  A
N179        C183   1.343       .  A
N180        C181   1.344       .  A
C181        C182   1.382       .  A
C181        H184   1.083       .  S
C182        C183   1.381       .  A
C182        C277   1.464       .  S
C183        H185   1.083       .  S
N186        N187   1.322       .  A
N186        C190   1.343       .  A
N187        C188   1.345       .  A
C188        C189   1.389       .  A
C188        H191   1.081       .  S
C189        C190   1.385       .  A
C189        C834   1.494       .  S
C190        H192   1.082       .  S
N193        N194   1.321       .  A
N193        C197   1.346       .  A
N193       Cu201   2.086       .  S
N194        C195   1.343       .  A
N194       Cu200   2.070       .  S
C195        C196   1.388       .  A
C195        H198   1.081       .  S
C196        C197   1.392       .  A
C196        C694   1.503       .  S
C197        H199   1.081       .  S
Cu200       N203   2.070       .  S
Cu201       N211   2.086       .  S
Cu202       N204   2.064       .  S
Cu202       N210   2.064       .  S
N203        N204   1.321       .  A
N203        C207   1.345       .  A
N204        C205   1.343       .  A
C205        C206   1.381       .  A
C205        H208   1.083       .  S
C206        C207   1.383       .  A
C206        C276   1.465   1_455  S
C207        H209   1.083       .  S
N210        N211   1.322       .  A
N210        C214   1.343       .  A
N211        C212   1.347       .  A
C212        C213   1.387       .  A
C212        H215   1.082       .  S
C213        C214   1.382       .  A
C213        C764   1.489       .  S
C214        H216   1.083       .  S
N217        N218   1.323       .  A
N217        C221   1.347       .  A
N217       Cu225   2.084       .  S
N218        C219   1.344       .  A
N218       Cu224   2.063       .  S
C219        C220   1.380       .  A
C219        H222   1.082       .  S
C220        C221   1.384       .  A
C220        C610   1.483       .  S
C221        H223   1.082       .  S
Cu224       N227   2.063       .  S
Cu225       N235   2.084       .  S
Cu226       N228   2.074       .  S
Cu226       N234   2.073       .  S
N227        N228   1.322       .  A
N227        C231   1.343       .  A
N228        C229   1.345       .  A
C229        C230   1.383       .  A
C229        H232   1.083       .  S
C230        C231   1.381       .  A
C230        C275   1.466   1_554  S
C231        H233   1.083       .  S
N234        N235   1.320       .  A
N234        C238   1.343       .  A
N235        C236   1.345       .  A
C236        C237   1.393       .  A
C236        H239   1.080       .  S
C237        C238   1.391       .  A
C237        C582   1.507       .  S
C238        H240   1.081       .  S
N241        N242   1.322       .  A
N241        C245   1.346       .  A
N241       Cu249   2.081       .  S
N242        C243   1.343       .  A
N242       Cu248   2.065       .  S
C243        C244   1.383       .  A
C243        H246   1.082       .  S
C244        C245   1.387       .  A
C244        C551   1.490       .  S
C245        H247   1.082       .  S
Cu248       N251   2.065       .  S
Cu249       N259   2.081       .  S
Cu250       N252   2.065       .  S
Cu250       N258   2.066       .  S
N251        N252   1.321       .  A
N251        C255   1.344       .  A
N252        C253   1.343       .  A
C253        C254   1.382       .  A
C253        H256   1.083       .  S
C254        C255   1.381       .  A
C254        C278   1.464   1_454  S
C255        H257   1.083       .  S
N258        N259   1.322       .  A
N258        C262   1.343       .  A
N259        C260   1.346       .  A
C260        C261   1.387       .  A
C260        H263   1.082       .  S
C261        C262   1.383       .  A
C261        C652   1.491       .  S
C262        H264   1.082       .  S
O265       Cu273   2.006       .  S
O265        C275   1.277       .  A
O266       Cu273   2.005       .  S
O266        C276   1.277       .  A
O267       Cu273   2.005       .  S
O267        C277   1.277       .  A
O268       Cu273   2.001       .  S
O268        C278   1.277       .  A
O269       Cu274   2.005       .  S
O269        C278   1.277       .  A
O270       Cu274   2.002       .  S
O270        C277   1.277       .  A
O271       Cu274   2.004       .  S
O271        C276   1.277       .  A
O272       Cu274   2.006       .  S
O272        C275   1.277       .  A
Cu273      Cu274   2.378       .  S
N279        N280   1.323       .  A
N279        C283   1.346       .  A
N279       Cu287   2.084       .  S
N280        C281   1.344       .  A
N280       Cu286   2.066       .  S
C281        C282   1.380       .  A
C281        H284   1.082       .  S
C282        C283   1.384       .  A
C282        C722   1.483       .  S
C283        H285   1.082       .  S
Cu286       N289   2.066       .  S
Cu287       N297   2.084       .  S
Cu288       N290   2.067       .  S
Cu288       N296   2.067       .  S
N289        N290   1.321       .  A
N289        C293   1.344       .  A
N290        C291   1.344       .  A
C291        C292   1.382       .  A
C291        H294   1.082       .  S
C292        C293   1.382       .  A
C292        C385   1.465       .  S
C293        H295   1.082       .  S
N296        N297   1.322       .  A
N296        C300   1.344       .  A
N297        C298   1.346       .  A
C298        C299   1.388       .  A
C298        H301   1.082       .  S
C299        C300   1.384       .  A
C299        C820   1.492       .  S
C300        H302   1.082       .  S
N303        N304   1.322       .  A
N303        C307   1.345       .  A
N303       Cu311   2.080       .  S
N304        C305   1.343       .  A
N304       Cu310   2.064       .  S
C305        C306   1.384       .  A
C305        H308   1.082       .  S
C306        C307   1.387       .  A
C306        C778   1.491       .  S
C307        H309   1.082       .  S
Cu310       N313   2.063       .  S
Cu311       N321   2.080       .  S
Cu312       N314   2.065       .  S
Cu312       N320   2.065       .  S
N313        N314   1.322       .  A
N313        C317   1.343       .  A
N314        C315   1.344       .  A
C315        C316   1.381       .  A
C315        H318   1.082       .  S
C316        C317   1.381       .  A
C316        C388   1.463   1_545  S
C317        H319   1.082       .  S
N320        N321   1.321       .  A
N320        C324   1.343       .  A
N321        C322   1.345       .  A
C322        C323   1.388       .  A
C322        H325   1.082       .  S
C323        C324   1.384       .  A
C323        C750   1.492       .  S
C324        H326   1.082       .  S
N327        N328   1.323       .  A
N327        C331   1.346       .  A
N327       Cu335   2.080       .  S
N328        C329   1.344       .  A
N328       Cu334   2.066       .  S
C329        C330   1.380       .  A
C329        H332   1.082       .  S
C330        C331   1.384       .  A
C330        C624   1.483       .  S
C331        H333   1.082       .  S
Cu334       N337   2.066       .  S
Cu335       N345   2.080       .  S
Cu336       N338   2.064       .  S
Cu336       N344   2.064       .  S
N337        N338   1.321       .  A
N337        C341   1.344       .  A
N338        C339   1.343       .  A
C339        C340   1.381       .  A
C339        H342   1.082       .  S
C340        C341   1.381       .  A
C340        C387   1.463   1_554  S
C341        H343   1.082       .  S
N344        N345   1.322       .  A
N344        C348   1.343       .  A
N345        C346   1.345       .  A
C346        C347   1.387       .  A
C346        H349   1.082       .  S
C347        C348   1.384       .  A
C347        C666   1.491       .  S
C348        H350   1.082       .  S
N351        N352   1.322       .  A
N351        C355   1.346       .  A
N351       Cu359   2.083       .  S
N352        C353   1.344       .  A
N352       Cu358   2.066       .  S
C353        C354   1.383       .  A
C353        H356   1.082       .  S
C354        C355   1.386       .  A
C354        C537   1.489       .  S
C355        H357   1.082       .  S
Cu358       N361   2.066       .  S
Cu359       N369   2.083       .  S
Cu360       N362   2.067       .  S
Cu360       N368   2.067       .  S
N361        N362   1.322       .  A
N361        C365   1.344       .  A
N362        C363   1.344       .  A
C363        C364   1.382       .  A
C363        H366   1.082       .  S
C364        C365   1.382       .  A
C364        C386   1.464   1_544  S
C365        H367   1.082       .  S
N368        N369   1.323       .  A
N368        C372   1.344       .  A
N369        C370   1.347       .  A
C370        C371   1.383       .  A
C370        H373   1.082       .  S
C371        C372   1.379       .  A
C371        C565   1.481       .  S
C372        H374   1.082       .  S
O375       Cu383   2.003       .  S
O375        C385   1.277       .  A
O376       Cu383   2.005       .  S
O376        C386   1.277       .  A
O377       Cu383   2.002       .  S
O377        C387   1.277       .  A
O378       Cu383   2.002       .  S
O378        C388   1.277       .  A
O379       Cu384   2.002       .  S
O379        C388   1.277       .  A
O380       Cu384   2.003       .  S
O380        C387   1.277       .  A
O381       Cu384   2.003       .  S
O381        C386   1.277       .  A
O382       Cu384   2.005       .  S
O382        C385   1.277       .  A
Cu383      Cu384   2.378       .  S
N389        N390   1.322       .  A
N389        C393   1.345       .  A
N389       Cu397   2.074       .  S
N390        C391   1.345       .  A
N390       Cu396   2.074       .  S
C391        C392   1.386       .  A
C391        H394   1.082       .  S
C392        C393   1.386       .  A
C392        C540   1.492       .  S
C393        H395   1.082       .  S
Cu396       N399   2.074       .  S
Cu397       N407   2.074       .  S
Cu398       N400   2.074       .  S
Cu398       N406   2.074       .  S
N399        N400   1.322       .  A
N399        C403   1.345       .  A
N400        C401   1.345       .  A
C401        C402   1.385       .  A
C401        H404   1.082       .  S
C402        C403   1.385       .  A
C402        C554   1.490       .  S
C403        H405   1.082       .  S
N406        N407   1.323       .  A
N406        C410   1.346       .  A
N407        C408   1.345       .  A
C408        C409   1.383       .  A
C408        H411   1.082       .  S
C409        C410   1.383       .  A
C409        C523   1.484       .  S
C410        H412   1.082       .  S
N413        N414   1.323       .  A
N413        C417   1.347       .  A
N413       Cu421   2.083       .  S
N414        C415   1.344       .  A
N414       Cu420   2.065       .  S
C415        C416   1.380       .  A
C415        H418   1.082       .  S
C416        C417   1.384       .  A
C416        C848   1.483       .  S
C417        H419   1.082       .  S
Cu420       N423   2.065       .  S
Cu421       N431   2.083       .  S
Cu422       N424   2.067       .  S
Cu422       N430   2.067       .  S
N423        N424   1.322       .  A
N423        C427   1.344       .  A
N424        C425   1.344       .  A
C425        C426   1.382       .  A
C425        H428   1.082       .  S
C426        C427   1.381       .  A
C426        C519   1.464       .  S
C427        H429   1.082       .  S
N430        N431   1.321       .  A
N430        C434   1.343       .  A
N431        C432   1.346       .  A
C432        C433   1.389       .  A
C432        H435   1.082       .  S
C433        C434   1.385       .  A
C433        C638   1.495       .  S
C434        H436   1.082       .  S
N437        N438   1.322       .  A
N437        C441   1.345       .  A
N437       Cu445   2.082       .  S
N438        C439   1.344       .  A
N438       Cu444   2.066       .  S
C439        C440   1.385       .  A
C439        H442   1.082       .  S
C440        C441   1.388       .  A
C440        C708   1.494       .  S
C441        H443   1.082       .  S
Cu444       N447   2.066       .  S
Cu445       N455   2.082       .  S
Cu446       N448   2.065       .  S
Cu446       N454   2.065       .  S
N447        N448   1.322       .  A
N447        C451   1.344       .  A
N448        C449   1.344       .  A
C449        C450   1.381       .  A
C449        H452   1.082       .  S
C450        C451   1.382       .  A
C450        C522   1.464   1_455  S
C451        H453   1.082       .  S
N454        N455   1.323       .  A
N454        C458   1.344       .  A
N455        C456   1.346       .  A
C456        C457   1.385       .  A
C456        H459   1.082       .  S
C457        C458   1.381       .  A
C457        C677   1.485       .  S
C458        H460   1.082       .  S
N461        N462   1.322       .  A
N461        C465   1.347       .  A
N461       Cu469   2.085       .  S
N462        C463   1.343       .  A
N462       Cu468   2.065       .  S
C463        C464   1.383       .  A
C463        H466   1.082       .  S
C464        C465   1.388       .  A
C464        C789   1.491       .  S
C465        H467   1.082       .  S
Cu468       N471   2.064       .  S
Cu469       N479   2.085       .  S
Cu470       N472   2.067       .  S
Cu470       N478   2.067       .  S
N471        N472   1.321       .  A
N471        C475   1.344       .  A
N472        C473   1.344       .  A
C473        C474   1.382       .  A
C473        H476   1.082       .  S
C474        C475   1.381       .  A
C474        C521   1.464   1_545  S
C475        H477   1.082       .  S
N478        N479   1.321       .  A
N478        C482   1.344       .  A
N479        C480   1.346       .  A
C480        C481   1.390       .  A
C480        H483   1.081       .  S
C481        C482   1.386       .  A
C481        C596   1.498       .  S
C482        H484   1.081       .  S
N485        N486   1.322       .  A
N485        C489   1.345       .  A
N485       Cu493   2.082       .  S
N486        C487   1.343       .  A
N486       Cu492   2.062       .  S
C487        C488   1.383       .  A
C487        H490   1.082       .  S
C488        C489   1.387       .  A
C488        C736   1.490       .  S
C489        H491   1.082       .  S
Cu492       N495   2.062       .  S
Cu493       N503   2.082       .  S
Cu494       N496   2.067       .  S
Cu494       N502   2.067       .  S
N495        N496   1.322       .  A
N495        C499   1.343       .  A
N496        C497   1.344       .  A
C497        C498   1.382       .  A
C497        H500   1.082       .  S
C498        C499   1.380       .  A
C498        C520   1.463   1_445  S
C499        H501   1.082       .  S
N502        N503   1.321       .  A
N502        C506   1.343       .  A
N503        C504   1.345       .  A
C504        C505   1.390       .  A
C504        H507   1.081       .  S
C505        C506   1.387       .  A
C505        C526   1.499       .  S
C506        H508   1.082       .  S
O509       Cu517   2.003       .  S
O509        C519   1.277       .  A
O510       Cu517   2.001       .  S
O510        C520   1.277       .  A
O511       Cu517   2.003       .  S
O511        C521   1.277       .  A
O512       Cu517   2.003       .  S
O512        C522   1.277       .  A
O513       Cu518   2.004       .  S
O513        C522   1.277       .  A
O514       Cu518   2.005       .  S
O514        C521   1.277       .  A
O515       Cu518   2.002       .  S
O515        C520   1.277       .  A
O516       Cu518   2.004       .  S
O516        C519   1.277       .  A
Cu517      Cu518   2.378       .  S
C523        C524   1.410       .  A
C523        C528   1.409       .  A
C524        C525   1.411       .  A
C524        C529   1.452       .  S
C525        C526   1.419       .  A
C525        C532   1.451       .  S
C526        C527   1.421       .  A
C527        C528   1.412       .  A
C527        C530   1.451       .  S
C528        C531   1.452       .  S
C529        N536   1.157       .  T
C530        N535   1.158       .  T
C531        N533   1.157       .  T
C532        N534   1.157       .  T
C537        C538   1.414       .  A
C537        C542   1.413       .  A
C538        C539   1.412       .  A
C538        C543   1.452       .  S
C539        C540   1.415       .  A
C539        C546   1.452       .  S
C540        C541   1.416       .  A
C541        C542   1.411       .  A
C541        C544   1.451       .  S
C542        C545   1.452       .  S
C543        N550   1.157       .  T
C544        N549   1.157       .  T
C545        N547   1.157       .  T
C546        N548   1.157       .  T
C551        C552   1.415       .  A
C551        C556   1.414       .  A
C552        C553   1.411       .  A
C552        C557   1.452       .  S
C553        C554   1.414       .  A
C553        C560   1.452       .  S
C554        C555   1.415       .  A
C555        C556   1.411       .  A
C555        C558   1.451       .  S
C556        C559   1.451       .  S
C557        N564   1.157       .  T
C558        N563   1.157       .  T
C559        N561   1.157       .  T
C560        N562   1.157       .  T
C565        C566   1.407       .  A
C565        C570   1.407       .  A
C566        C567   1.413       .  A
C566        C571   1.452       .  S
C567        C568   1.424       .  A
C567        C574   1.450       .  S
C568        C569   1.423       .  A
C569        C570   1.412       .  A
C569        C572   1.451       .  S
C570        C573   1.452       .  S
C571        N578   1.157       .  T
C572        N577   1.158       .  T
C573        N575   1.157       .  T
C574        N576   1.158       .  T
C579        C580   1.406       .  A
C579        C584   1.407       .  A
C580        C581   1.413       .  A
C580        C585   1.452       .  S
C581        C582   1.425       .  A
C581        C588   1.450       .  S
C582        C583   1.424       .  A
C583        C584   1.413       .  A
C583        C586   1.450       .  S
C584        C587   1.452       .  S
C585        N592   1.157       .  T
C586        N591   1.158       .  T
C587        N589   1.157       .  T
C588        N590   1.158       .  T
C593        C594   1.409       .  A
C593        C598   1.409       .  A
C594        C595   1.411       .  A
C594        C599   1.452       .  S
C595        C596   1.419       .  A
C595        C602   1.451       .  S
C596        C597   1.421       .  A
C597        C598   1.413       .  A
C597        C600   1.451       .  S
C598        C601   1.452       .  S
C599        N606   1.157       .  T
C600        N605   1.158       .  T
C601        N603   1.157       .  T
C602        N604   1.157       .  T
C607        C608   1.420       .  A
C607        C612   1.422       .  A
C608        C609   1.411       .  A
C608        C613   1.451       .  S
C609        C610   1.409       .  A
C609        C616   1.452       .  S
C610        C611   1.408       .  A
C611        C612   1.412       .  A
C611        C614   1.452       .  S
C612        C615   1.451       .  S
C613        N620   1.158       .  T
C614        N619   1.157       .  T
C615        N617   1.158       .  T
C616        N618   1.157       .  T
C621        C622   1.422       .  A
C621        C626   1.421       .  A
C622        C623   1.412       .  A
C622        C627   1.450       .  S
C623        C624   1.408       .  A
C623        C630   1.452       .  S
C624        C625   1.409       .  A
C625        C626   1.411       .  A
C625        C628   1.452       .  S
C626        C629   1.451       .  S
C627        N634   1.158       .  T
C628        N633   1.157       .  T
C629        N631   1.158       .  T
C630        N632   1.157       .  T
C635        C636   1.410       .  A
C635        C640   1.410       .  A
C636        C637   1.412       .  A
C636        C641   1.452       .  S
C637        C638   1.419       .  A
C637        C644   1.451       .  S
C638        C639   1.418       .  A
C639        C640   1.411       .  A
C639        C642   1.451       .  S
C640        C643   1.451       .  S
C641        N648   1.157       .  T
C642        N647   1.157       .  T
C643        N645   1.157       .  T
C644        N646   1.158       .  T
C649        C650   1.416       .  A
C649        C654   1.415       .  A
C650        C651   1.411       .  A
C650        C655   1.451       .  S
C651        C652   1.414       .  A
C651        C658   1.452       .  S
C652        C653   1.415       .  A
C653        C654   1.411       .  A
C653        C656   1.452       .  S
C654        C657   1.452       .  S
C655        N662   1.157       .  T
C656        N661   1.157       .  T
C657        N659   1.157       .  T
C658        N660   1.157       .  T
C663        C664   1.415       .  A
C663        C668   1.414       .  A
C664        C665   1.410       .  A
C664        C669   1.452       .  S
C665        C666   1.415       .  A
C665        C672   1.452       .  S
C666        C667   1.416       .  A
C667        C668   1.412       .  A
C667        C670   1.452       .  S
C668        C671   1.452       .  S
C669        N676   1.157       .  T
C670        N675   1.157       .  T
C671        N673   1.157       .  T
C672        N674   1.157       .  T
C677        C678   1.410       .  A
C677        C682   1.411       .  A
C678        C679   1.411       .  A
C678        C683   1.452       .  S
C679        C680   1.420       .  A
C679        C686   1.451       .  S
C680        C681   1.420       .  A
C681        C682   1.412       .  A
C681        C684   1.451       .  S
C682        C685   1.452       .  S
C683        N690   1.157       .  T
C684        N689   1.158       .  T
C685        N687   1.157       .  T
C686        N688   1.157       .  T
C691        C692   1.408       .  A
C691        C696   1.407       .  A
C692        C693   1.413       .  A
C692        C697   1.452       .  S
C693        C694   1.422       .  A
C693        C700   1.450       .  S
C694        C695   1.423       .  A
C695        C696   1.412       .  A
C695        C698   1.451       .  S
C696        C699   1.452       .  S
C697        N704   1.157       .  T
C698        N703   1.158       .  T
C699        N701   1.157       .  T
C700        N702   1.158       .  T
C705        C706   1.414       .  A
C705        C710   1.414       .  A
C706        C707   1.412       .  A
C706        C711   1.452       .  S
C707        C708   1.417       .  A
C707        C714   1.451       .  S
C708        C709   1.415       .  A
C709        C710   1.411       .  A
C709        C712   1.451       .  S
C710        C713   1.452       .  S
C711        N718   1.157       .  T
C712        N717   1.157       .  T
C713        N715   1.157       .  T
C714        N716   1.158       .  T
C719        C720   1.422       .  A
C719        C724   1.422       .  A
C720        C721   1.412       .  A
C720        C725   1.451       .  S
C721        C722   1.409       .  A
C721        C728   1.452       .  S
C722        C723   1.408       .  A
C723        C724   1.412       .  A
C723        C726   1.452       .  S
C724        C727   1.450       .  S
C725        N732   1.158       .  T
C726        N731   1.157       .  T
C727        N729   1.158       .  T
C728        N730   1.157       .  T
C733        C734   1.417       .  A
C733        C738   1.416       .  A
C734        C735   1.411       .  A
C734        C739   1.451       .  S
C735        C736   1.413       .  A
C735        C742   1.452       .  S
C736        C737   1.414       .  A
C737        C738   1.412       .  A
C737        C740   1.452       .  S
C738        C741   1.452       .  S
C739        N746   1.157       .  T
C740        N745   1.157       .  T
C741        N743   1.157       .  T
C742        N744   1.157       .  T
C747        C748   1.412       .  A
C747        C752   1.413       .  A
C748        C749   1.412       .  A
C748        C753   1.452       .  S
C749        C750   1.417       .  A
C749        C756   1.451       .  S
C750        C751   1.416       .  A
C751        C752   1.411       .  A
C751        C754   1.451       .  S
C752        C755   1.451       .  S
C753        N760   1.157       .  T
C754        N759   1.157       .  T
C755        N757   1.157       .  T
C756        N758   1.157       .  T
C761        C762   1.416       .  A
C761        C766   1.415       .  A
C762        C763   1.412       .  A
C762        C767   1.451       .  S
C763        C764   1.413       .  A
C763        C770   1.451       .  S
C764        C765   1.414       .  A
C765        C766   1.411       .  A
C765        C768   1.452       .  S
C766        C769   1.451       .  S
C767        N774   1.157       .  T
C768        N773   1.157       .  T
C769        N771   1.157       .  T
C770        N772   1.157       .  T
C775        C776   1.415       .  A
C775        C780   1.414       .  A
C776        C777   1.411       .  A
C776        C781   1.451       .  S
C777        C778   1.415       .  A
C777        C784   1.452       .  S
C778        C779   1.416       .  A
C779        C780   1.412       .  A
C779        C782   1.452       .  S
C780        C783   1.452       .  S
C781        N788   1.157       .  T
C782        N787   1.157       .  T
C783        N785   1.157       .  T
C784        N786   1.157       .  T
C789        C790   1.414       .  A
C789        C794   1.416       .  A
C790        C791   1.412       .  A
C790        C795   1.451       .  S
C791        C792   1.414       .  A
C791        C798   1.451       .  S
C792        C793   1.413       .  A
C793        C794   1.411       .  A
C793        C796   1.452       .  S
C794        C797   1.451       .  S
C795        N802   1.157       .  T
C796        N801   1.157       .  T
C797        N799   1.157       .  T
C798        N800   1.157       .  T
C803        C804   1.414       .  A
C803        C808   1.413       .  A
C804        C805   1.411       .  A
C804        C809   1.451       .  S
C805        C806   1.415       .  A
C805        C812   1.451       .  S
C806        C807   1.416       .  A
C807        C808   1.411       .  A
C807        C810   1.451       .  S
C808        C811   1.452       .  S
C809        N816   1.157       .  T
C810        N815   1.157       .  T
C811        N813   1.157       .  T
C812        N814   1.157       .  T
C817        C818   1.414       .  A
C817        C822   1.413       .  A
C818        C819   1.412       .  A
C818        C823   1.451       .  S
C819        C820   1.415       .  A
C819        C826   1.451       .  S
C820        C821   1.416       .  A
C821        C822   1.411       .  A
C821        C824   1.451       .  S
C822        C825   1.452       .  S
C823        N830   1.157       .  T
C824        N829   1.157       .  T
C825        N827   1.157       .  T
C826        N828   1.157       .  T
C831        C832   1.412       .  A
C831        C836   1.413       .  A
C832        C833   1.412       .  A
C832        C837   1.452       .  S
C833        C834   1.418       .  A
C833        C840   1.451       .  S
C834        C835   1.416       .  A
C835        C836   1.411       .  A
C835        C838   1.451       .  S
C836        C839   1.452       .  S
C837        N844   1.157       .  T
C838        N843   1.157       .  T
C839        N841   1.157       .  T
C840        N842   1.158       .  T
C845        C846   1.420       .  A
C845        C850   1.420       .  A
C846        C847   1.412       .  A
C846        C851   1.451       .  S
C847        C848   1.409       .  A
C847        C854   1.452       .  S
C848        C849   1.409       .  A
C849        C850   1.411       .  A
C849        C852   1.452       .  S
C850        C853   1.451       .  S
C851        N858   1.158       .  T
C852        N857   1.157       .  T
C853        N855   1.158       .  T
C854        N856   1.157       .  T
