geometry optimzed in LAMMPS
_audit_creation_date              2020-12-01 
_audit_creation_method            'lammps2cif' 
_symmetry_space_group_name_H-M    'P1' 
_symmetry_Int_Tables_number       1 
_symmetry_cell_setting            triclinic 
loop_ 
_symmetry_equiv_pos_as_xyz 
  x,y,z 
_cell_length_a                    23.31422666 
_cell_length_b                    38.673602269475566 
_cell_length_c                    23.918204202709408 
_cell_angle_alpha                 89.66863008231604 
_cell_angle_beta                  91.14277003702689 
_cell_angle_gamma                 89.33949837608037 
loop_ 
_atom_site_label 
_atom_site_type_symbol 
_atom_site_fract_x 
_atom_site_fract_y 
_atom_site_fract_z 
_atom_site_charge 
O1          O  0.18329117  0.94831696  0.99193387    -0.70100
O2          O  0.18422090  0.05195009  0.98886855    -0.71100
O3          O  0.18426662  0.99947344  0.90613079    -0.59700
O4          O  0.18382521  0.00066531  0.07440223    -0.68100
O5          O  0.27920748  0.99972708  0.07609800    -0.67700
O6          O  0.27964021  0.99852890  0.90858997    -0.58900
O7          O  0.27962813  0.05089818  0.99094904    -0.71400
O8          O  0.27870958  0.94747656  0.99402123    -0.70200
Cu9        Cu  0.18046985  0.00015131  0.99020323     1.04600
Cu10       Cu  0.28261594  0.99913732  0.99243550     1.04300
C11         C  0.23091740  0.93174321  0.99382945     0.96100
C12         C  0.23210596  0.06759576  0.98964714     0.95200
C13         C  0.23216479  0.99877444  0.88112774     0.87400
C14         C  0.23160637  0.00024057  0.10148101     0.93700
O15         O  0.28798364  0.99799383  0.40818241    -0.70100
O16         O  0.28821453  0.99688062  0.57645668    -0.71100
O17         O  0.29261600  0.94513178  0.49191062    -0.59700
O18         O  0.28427211  0.04954963  0.49270011    -0.68100
O19         O  0.18908159  0.04787667  0.49089937    -0.67700
O20         O  0.19746864  0.94299643  0.49016581    -0.58900
O21         O  0.19295641  0.99493875  0.57433035    -0.71400
O22         O  0.19272619  0.99601267  0.40678776    -0.70200
Cu23       Cu  0.29160825  0.99744399  0.49237702     1.04600
Cu24       Cu  0.18972452  0.99535536  0.49048629     1.04300
C25         C  0.24016720  0.99726622  0.38124670     0.96100
C26         C  0.24046288  0.99590308  0.60163538     0.95200
C27         C  0.24641164  0.92767853  0.49087318     0.87400
C28         C  0.23560627  0.06509239  0.49192620     0.93700
C29         C  0.24267315  0.17243526  0.99264650     0.06000
C30         C  0.19537862  0.19405835  0.00166798    -0.10200
C31         C  0.20208441  0.23013324  0.00416772     0.03500
C32         C  0.25757936  0.24392152  0.99914293    -0.08700
C33         C  0.30566016  0.22208846  0.99056161     0.06000
C34         C  0.29720659  0.18636707  0.98675765    -0.08100
H35         H  0.15395064  0.18243422  0.00767683     0.11600
H36         H  0.26245749  0.27166708  0.00063150     0.09100
H37         H  0.33345449  0.16917106  0.97993482     0.08900
C38         C  0.24252715  0.17114366  0.49297498     0.06000
C39         C  0.19505049  0.19337552  0.49930795    -0.10200
C40         C  0.20213554  0.22963201  0.50015214     0.03500
C41         C  0.25795233  0.24297592  0.49549269    -0.08700
C42         C  0.30621390  0.22091542  0.48972579     0.06000
C43         C  0.29749657  0.18501390  0.48793761    -0.08100
H44         H  0.15325993  0.18210872  0.50454685     0.11600
H45         H  0.26297691  0.27071392  0.49550694     0.09100
H46         H  0.33390150  0.16763496  0.48329774     0.08900
C47         C  0.24230802  0.82693521  0.00004034     0.06000
C48         C  0.29733218  0.81308795  0.99402149    -0.10200
C49         C  0.30685319  0.77728477  0.99556394     0.03500
C50         C  0.25938179  0.75527920  0.00218005    -0.08700
C51         C  0.20335759  0.76904953  0.00732471     0.06000
C52         C  0.19558621  0.80518840  0.00719883    -0.08100
H53         H  0.33308191  0.83039843  0.98839686     0.11600
H54         H  0.26518346  0.72750211  0.00176175     0.09100
H55         H  0.15367395  0.81672524  0.01314809     0.08900
C56         C  0.25349233  0.82131552  0.49401827     0.06000
C57         C  0.30380481  0.80259584  0.48177545    -0.10200
C58         C  0.30511398  0.76618134  0.48700936     0.03500
C59         C  0.25643094  0.74901476  0.50482548    -0.08700
C60         C  0.20573294  0.76704916  0.51498223     0.06000
C61         C  0.20437375  0.80339307  0.51008393    -0.08100
H62         H  0.34187525  0.81640396  0.46992409     0.11600
H63         H  0.25744112  0.72105668  0.50909155     0.09100
H64         H  0.16565584  0.81777445  0.51958168     0.08900
C65         C  0.00935750  0.67244928  0.01709962     0.06000
C66         C  0.45561341  0.68516363  0.98651368    -0.10200
C67         C  0.44597457  0.72066316  0.99321770     0.03500
C68         C  0.99321639  0.74392121  0.00661517    -0.08700
C69         C  0.04946067  0.72989403  0.00677002     0.06000
C70         C  0.05681515  0.69379211  0.01122776    -0.08100
H71         H  0.41981121  0.66750882  0.98744253     0.11600
H72         H  0.98759209  0.77167199  0.00371472     0.09100
H73         H  0.09888452  0.68185621  0.00941180     0.08900
C74         C  0.00165233  0.67965891  0.53473195     0.06000
C75         C  0.45170191  0.69561178  0.44113277    -0.10200
C76         C  0.45088980  0.73209693  0.43867765     0.03500
C77         C  0.99888366  0.75191019  0.52392718    -0.08700
C78         C  0.05121888  0.73433441  0.52194873     0.06000
C79         C  0.05266324  0.69799878  0.52721929    -0.08100
H80         H  0.41182987  0.68149590  0.43947131     0.11600
H81         H  0.99784604  0.77982918  0.51892806     0.09100
H82         H  0.09277112  0.68386451  0.52356889     0.08900
C83         C  0.50496766  0.32774086  0.97470707     0.06000
C84         C  0.05412103  0.30585552  0.01751119    -0.10200
C85         C  0.04734722  0.27000560  0.01046567     0.03500
C86         C  0.49091749  0.25674271  0.99085574    -0.08700
C87         C  0.44242024  0.27899319  0.99049011     0.06000
C88         C  0.45030027  0.31455206  0.98319690    -0.08100
H89         H  0.09592488  0.31757906  0.01604981     0.11600
H90         H  0.48593189  0.22930719  0.99823361     0.09100
H91         H  0.41359163  0.33204332  0.98340549     0.08900
C92         C  0.50676458  0.32855706  0.48279712     0.06000
C93         C  0.45157994  0.31492263  0.48701452    -0.10200
C94         C  0.44322395  0.27909957  0.49175903     0.03500
C95         C  0.99208572  0.25814646  0.50912947    -0.08700
C96         C  0.04793364  0.27175828  0.50715993     0.06000
C97         C  0.05468554  0.30795130  0.51136011    -0.08100
H98         H  0.41479251  0.33234942  0.48603153     0.11600
H99         H  0.98731638  0.23043870  0.50672398     0.09100
H100        H  0.09653779  0.31949978  0.50855613     0.08900
O101        O  0.47150806  0.50193240  0.87698829    -0.70100
O102        O  0.47142706  0.49985158  0.04463599    -0.71100
O103        O  0.47338197  0.55251199  0.96207669    -0.59700
O104        O  0.46987174  0.44920795  0.95981791    -0.68100
O105        O  0.06558654  0.44743431  0.03498825    -0.67700
O106        O  0.06717359  0.55104446  0.03058663    -0.58900
O107        O  0.06597069  0.50041043  0.11700747    -0.71400
O108        O  0.06626011  0.49822669  0.94879193    -0.70200
Cu109      Cu  0.46822176  0.50093093  0.96073391     1.04600
Cu110      Cu  0.06967279  0.49920992  0.03298861     1.04300
C111        C  0.01849161  0.49858903  0.92168993     0.96100
C112        C  0.01811026  0.50151455  0.14203788     0.95200
C113        C  0.01965127  0.56772776  0.02853349     0.87400
C114        C  0.51697662  0.43209629  0.96094015     0.93700
O115        O  0.46249952  0.55444884  0.45651192    -0.70100
O116        O  0.46711041  0.45017476  0.46506697    -0.71100
O117        O  0.46501327  0.50438719  0.54474807    -0.59700
O118        O  0.46516087  0.50006762  0.37673906    -0.68100
O119        O  0.05887447  0.50672741  0.44860584    -0.67700
O120        O  0.05941745  0.50309661  0.61620172    -0.58900
O121        O  0.06151266  0.45252590  0.52971822    -0.71400
O122        O  0.05605067  0.55742666  0.53489415    -0.70200
Cu123      Cu  0.46161326  0.50225557  0.46067732     1.04600
Cu124      Cu  0.06230658  0.50501179  0.53243834     1.04300
C125        C  0.00752218  0.57321960  0.53475694     0.96100
C126        C  0.01454806  0.43575461  0.52792954     0.95200
C127        C  0.01195227  0.50203627  0.64175792     0.87400
C128        C  0.01126177  0.50648019  0.42139878     0.93700
C129        C  0.01259312  0.50070024  0.70176854    -0.15700
C130        C  0.01418627  0.49969500  0.75218186     0.08400
C131        C  0.01650920  0.49878492  0.81123247     0.10300
C132        C  0.01806673  0.49839861  0.86166148    -0.16500
C133        C  0.01162142  0.50663969  0.36141741    -0.15700
C134        C  0.01321097  0.50586049  0.31109419     0.08400
C135        C  0.51705108  0.49781000  0.18231239     0.10300
C136        C  0.01746948  0.50289380  0.20196084    -0.16500
C137        C  0.01561554  0.39834194  0.52517067    -0.10400
C138        C  0.01342504  0.36705747  0.52221296    -0.12000
C139        C  0.51536509  0.39517137  0.96271562    -0.10400
C140        C  0.51179314  0.36427630  0.96699382    -0.12000
C141        C  0.00312286  0.64206715  0.53639313    -0.10400
C142        C  0.00525089  0.61067713  0.53618467    -0.12000
C143        C  0.01686175  0.63566144  0.02199321    -0.10400
C144        C  0.01977482  0.60465602  0.02557302    -0.12000
C145        C  0.10242828  0.75525961  0.51102274    -0.13600
C146        C  0.15506902  0.74658257  0.52964802    -0.28800
H147        H  0.09609338  0.77918827  0.48753656     0.15400
H148        H  0.16197324  0.72255955  0.55268231     0.16000
C149        C  0.35671360  0.74464816  0.47731475    -0.13600
C150        C  0.39729059  0.75271164  0.44086153    -0.28800
H151        H  0.36111494  0.72071075  0.50118527     0.15400
H152        H  0.39438170  0.77680718  0.41738431     0.16000
C153        C  0.15423019  0.74504269  0.01376088    -0.13600
C154        C  0.09904542  0.75367402  0.00081737    -0.28800
H155        H  0.16474269  0.71930449  0.02915897     0.15400
H156        H  0.08903754  0.77941165  0.98499400     0.16000
C157        C  0.38598989  0.73277862  0.00221345    -0.13600
C158        C  0.36684056  0.76461604  0.98794155    -0.28800
H159        H  0.35655809  0.71424143  0.01953935     0.15400
H160        H  0.39665075  0.78274432  0.97000811     0.16000
C161        C  0.36633700  0.23387981  0.48454497    -0.13600
C162        C  0.38312838  0.26634863  0.49695032    -0.28800
H163        H  0.39812507  0.21546084  0.47012301     0.15400
H164        H  0.35167999  0.28506986  0.51088765     0.16000
C165        C  0.09719927  0.24699388  0.49929872    -0.13600
C166        C  0.15319716  0.25464565  0.50773900    -0.28800
H167        H  0.08609222  0.22111585  0.48611925     0.15400
H168        H  0.16457723  0.28054257  0.52053292     0.16000
C169        C  0.36525360  0.23495844  0.98377450    -0.13600
C170        C  0.38301508  0.26655744  0.99911943    -0.28800
H171        H  0.39597416  0.21726223  0.96541224     0.15400
H172        H  0.35282067  0.28477017  0.01682661     0.16000
C173        C  0.15257136  0.25407934  0.01354099    -0.13600
C174        C  0.09720600  0.24609841  0.00189104    -0.28800
H175        H  0.16299810  0.27928902  0.03010343     0.15400
H176        H  0.08727519  0.22088771  0.98491303     0.16000
C177        C  0.23563760  0.13385917  0.49253021    -0.10400
C178        C  0.23365771  0.10252152  0.49222095    -0.12000
C179        C  0.25215774  0.85887167  0.49142506    -0.10400
C180        C  0.24964522  0.89024379  0.49072076    -0.12000
C181        C  0.23988640  0.99614787  0.66162312    -0.15700
C182        C  0.23793318  0.99671734  0.71194617     0.08400
C183        C  0.23497690  0.99753769  0.77083649     0.10300
C184        C  0.23292785  0.99818141  0.82115200    -0.16500
C185        C  0.23943870  0.99798668  0.32125439    -0.15700
C186        C  0.23731040  0.99872854  0.27086384     0.08400
C187        C  0.23417946  0.99958125  0.21186941     0.10300
C188        C  0.23212227  0.00010153  0.16147330    -0.16500
C189        C  0.23581611  0.13560732  0.99053083    -0.10400
C190        C  0.23277648  0.10457803  0.98955730    -0.12000
C191        C  0.23103128  0.89480367  0.99615184    -0.10400
C192        C  0.23424670  0.86376659  0.99829880    -0.12000
O193        O  0.68097243  0.94929871  0.01326636    -0.70100
O194        O  0.68255621  0.05299432  0.01436748    -0.71100
O195        O  0.68180180  0.00175259  0.92999612    -0.59700
O196        O  0.68187674  0.00043828  0.09814682    -0.68100
O197        O  0.77724536  0.99922870  0.09975917    -0.67700
O198        O  0.77718879  0.00061863  0.93207858    -0.58900
O199        O  0.77796896  0.05160316  0.01629977    -0.71400
O200        O  0.77639216  0.94835834  0.01507324    -0.70200
Cu201      Cu  0.67835961  0.00118781  0.01396086     1.04600
Cu202      Cu  0.78050999  0.99993231  0.01594435     1.04300
C203        C  0.72857819  0.93267793  0.01357042     0.96100
C204        C  0.73062438  0.06845160  0.01502484     0.95200
C205        C  0.72958306  0.00129101  0.90482219     0.87400
C206        C  0.72965372  0.99948160  0.12520427     0.93700
O207        O  0.78301839  0.99523718  0.43216152    -0.70100
O208        O  0.78316095  0.99748054  0.60027691    -0.71100
O209        O  0.78444573  0.94406304  0.51874752    -0.59700
O210        O  0.78237190  0.04845100  0.51393951    -0.68100
O211        O  0.68709268  0.04879099  0.51223691    -0.67700
O212        O  0.68918387  0.94394048  0.51692758    -0.58900
O213        O  0.68779917  0.99751570  0.59822986    -0.71400
O214        O  0.68766961  0.99536433  0.43066291    -0.70200
Cu215      Cu  0.78657724  0.99628311  0.51632209     1.04600
Cu216      Cu  0.68458112  0.99637195  0.51443302     1.04300
C217        C  0.73521285  0.99517029  0.40515653     0.96100
C218        C  0.73538500  0.99794154  0.62545900     0.95200
C219        C  0.73723090  0.92762547  0.51879202     0.87400
C220        C  0.73461368  0.06498776  0.51241794     0.93700
C221        C  0.74275671  0.17300429  0.00549771     0.06000
C222        C  0.69484337  0.19501422  0.00446879    -0.10200
C223        C  0.70144954  0.23101010  0.99914034     0.03500
C224        C  0.75746263  0.24444434  0.99701993    -0.08700
C225        C  0.80601242  0.22220872  0.99864608     0.06000
C226        C  0.79785141  0.18646518  0.00192364    -0.08100
H227        H  0.65294190  0.18372191  0.00868259     0.11600
H228        H  0.76292238  0.27209448  0.99279937     0.09100
H229        H  0.83464773  0.16902614  0.00276718     0.08900
C230        C  0.74425826  0.17092338  0.50791877     0.06000
C231        C  0.69602319  0.19297683  0.50780606    -0.10200
C232        C  0.70243450  0.22924690  0.50560884     0.03500
C233        C  0.75836687  0.24287457  0.50498768    -0.08700
C234        C  0.80728600  0.22097294  0.50552115     0.06000
C235        C  0.79935210  0.18498509  0.50639176    -0.08100
H236        H  0.65402412  0.18155431  0.51006099     0.11600
H237        H  0.76327287  0.27061334  0.50246344     0.09100
H238        H  0.83636498  0.16774557  0.50631263     0.08900
C239        C  0.74117124  0.82813296  0.00332232     0.06000
C240        C  0.79686394  0.81480672  0.99963455    -0.10200
C241        C  0.80661315  0.77911079  0.99641129     0.03500
C242        C  0.75902554  0.75680254  0.99501279    -0.08700
C243        C  0.70245171  0.77005215  0.99752105     0.06000
C244        C  0.69420696  0.80601281  0.00261002    -0.08100
H245        H  0.83289351  0.83231397  0.00032390     0.11600
H246        H  0.76560355  0.72919658  0.99077371     0.09100
H247        H  0.65180620  0.81715838  0.00694840     0.08900
C248        C  0.74104317  0.82136912  0.52701912     0.06000
C249        C  0.79186853  0.80354319  0.54239271    -0.10200
C250        C  0.79269775  0.76707864  0.54591571     0.03500
C251        C  0.74236957  0.74890878  0.53554857    -0.08700
C252        C  0.69238149  0.76613611  0.51761769     0.06000
C253        C  0.69149466  0.80253452  0.51394337    -0.08100
H254        H  0.83050052  0.81796913  0.55138080     0.11600
H255        H  0.74309638  0.72087512  0.53789370     0.09100
H256        H  0.65240820  0.81620927  0.50159411     0.08900
C257        C  0.51082482  0.67220906  0.97771374     0.06000
C258        C  0.95407319  0.68661308  0.01768759    -0.10200
C259        C  0.94506081  0.72230953  0.01180807     0.03500
C260        C  0.49333508  0.74313095  0.99259122    -0.08700
C261        C  0.54948546  0.73020544  0.98499221     0.06000
C262        C  0.55754448  0.69450456  0.97658725    -0.08100
H263        H  0.91773257  0.66961173  0.02214296     0.11600
H264        H  0.48712191  0.77053248  0.99956797     0.09100
H265        H  0.59963970  0.68381179  0.96853899     0.08900
C266        C  0.50409556  0.67745084  0.44665137     0.06000
C267        C  0.94921593  0.69794402  0.53787635    -0.10200
C268        C  0.94792842  0.73435087  0.53249422     0.03500
C269        C  0.50242157  0.75001594  0.44023922    -0.08700
C270        C  0.55432565  0.73240212  0.44918555     0.06000
C271        C  0.55531904  0.69598498  0.45146358    -0.08100
H272        H  0.90980264  0.68374537  0.54232201     0.11600
H273        H  0.50168951  0.77807866  0.43957055     0.09100
H274        H  0.59567606  0.68214749  0.45751131     0.08900
C275        C  0.00635859  0.32734230  0.02507265     0.06000
C276        C  0.55282225  0.30566192  0.97466910    -0.10200
C277        C  0.54651204  0.26995562  0.98378394     0.03500
C278        C  0.99134263  0.25642676  0.00974398    -0.08700
C279        C  0.94281711  0.27818268  0.01660669     0.06000
C280        C  0.95128026  0.31358336  0.02496376    -0.08100
H281        H  0.59449924  0.31653793  0.96694911     0.11600
H282        H  0.98623893  0.22885657  0.00485896     0.09100
H283        H  0.91467404  0.33070528  0.03048737     0.08900
C284        C  0.00680485  0.32981840  0.51821678     0.06000
C285        C  0.95178128  0.31564324  0.52040919    -0.10200
C286        C  0.94344372  0.27982011  0.51536476     0.03500
C287        C  0.49182924  0.25694482  0.49347262    -0.08700
C288        C  0.54786866  0.27019779  0.49029653     0.06000
C289        C  0.55472048  0.30626889  0.48427598    -0.08100
H290        H  0.91507758  0.33273179  0.52550078     0.11600
H291        H  0.48661356  0.22936965  0.49878928     0.09100
H292        H  0.59684715  0.31724960  0.47980531     0.08900
O293        O  0.97088715  0.49936971  0.94708008    -0.70100
O294        O  0.97059663  0.50160851  0.11464072    -0.71100
O295        O  0.97175836  0.55210803  0.02851104    -0.59700
O296        O  0.97017977  0.44872345  0.03300921    -0.68100
O297        O  0.56526783  0.44728843  0.96172855    -0.67700
O298        O  0.56878643  0.55087759  0.96395057    -0.58900
O299        O  0.56678822  0.49807566  0.04678735    -0.71400
O300        O  0.56686833  0.50014002  0.87857703    -0.70200
Cu301      Cu  0.96753105  0.50046896  0.03080968     1.04600
Cu302      Cu  0.57035204  0.49901691  0.96274689     1.04300
C303        C  0.51908993  0.50147802  0.85154947     0.96100
C304        C  0.51898707  0.49864974  0.07195025     0.95200
C305        C  0.52152840  0.56784294  0.96368597     0.87400
C306        C  0.01758953  0.43191356  0.03429499     0.93700
O307        O  0.96084679  0.55622405  0.53309944    -0.70100
O308        O  0.96628148  0.45174302  0.52822132    -0.71100
O309        O  0.96410455  0.50216235  0.61482135    -0.59700
O310        O  0.96355991  0.50563065  0.44666108    -0.68100
O311        O  0.56049032  0.50077768  0.37885892    -0.67700
O312        O  0.56034352  0.50518149  0.54631144    -0.58900
O313        O  0.56237608  0.45068905  0.46702831    -0.71400
O314        O  0.55773756  0.55538977  0.45827901    -0.70200
Cu315      Cu  0.96037055  0.50392338  0.53066848     1.04600
Cu316      Cu  0.56358615  0.50306064  0.46265769     1.04300
C317        C  0.50931647  0.57127467  0.45596052     0.96100
C318        C  0.51526791  0.43409772  0.46773691     0.95200
C319        C  0.51277394  0.50519632  0.57175852     0.87400
C320        C  0.51295849  0.49978559  0.35158087     0.93700
C321        C  0.51323193  0.50561026  0.63175349    -0.15700
C322        C  0.51477792  0.50506806  0.68216334     0.08400
C323        C  0.51709359  0.50383248  0.74117437     0.10300
C324        C  0.51864168  0.50265619  0.79156303    -0.16500
C325        C  0.51345670  0.49854773  0.29162622    -0.15700
C326        C  0.51490657  0.49797759  0.24127482     0.08400
C327        C  0.01571090  0.50431585  0.25223454     0.10300
C328        C  0.51850628  0.49803147  0.13194710    -0.16500
C329        C  0.51604691  0.39679665  0.47217294    -0.10400
C330        C  0.51359411  0.36561993  0.47676526    -0.12000
C331        C  0.01665116  0.39494948  0.03381171    -0.10400
C332        C  0.01337031  0.36398703  0.03095020    -0.12000
C333        C  0.50539519  0.63995670  0.44974197    -0.10400
C334        C  0.50732544  0.60864020  0.45258858    -0.12000
C335        C  0.51908166  0.63569062  0.97047913    -0.10400
C336        C  0.52216182  0.60475696  0.96622636    -0.12000
C337        C  0.60572869  0.75319237  0.46080156    -0.13600
C338        C  0.64238099  0.74484013  0.50264315    -0.28800
H339        H  0.61052378  0.77733404  0.43801554     0.15400
H340        H  0.63693294  0.72075887  0.52549608     0.16000
C341        C  0.84600264  0.74665685  0.55561737    -0.13600
C342        C  0.89464301  0.75550531  0.53086573    -0.28800
H343        H  0.84349573  0.72223975  0.57801805     0.15400
H344        H  0.89568469  0.77972574  0.50761217     0.16000
C345        C  0.65346868  0.74549475  0.99645897    -0.13600
C346        C  0.59830516  0.75479880  0.98496488    -0.28800
H347        H  0.66385243  0.71865182  0.00577776     0.15400
H348        H  0.58751656  0.78159055  0.97588419     0.16000
C349        C  0.88465760  0.73539041  0.01307986    -0.13600
C350        C  0.86710562  0.76652258  0.99357383    -0.28800
H351        H  0.85312837  0.71816872  0.03053862     0.15400
H352        H  0.89815126  0.78420701  0.97662935     0.16000
C353        C  0.86732047  0.23423754  0.50284189    -0.13600
C354        C  0.88332095  0.26644348  0.51792698    -0.28800
H355        H  0.89940885  0.21609752  0.48835775     0.15400
H356        H  0.85091738  0.28430333  0.53281575     0.16000
C357        C  0.59762542  0.24528884  0.49174725    -0.13600
C358        C  0.65237079  0.25398021  0.50472678    -0.28800
H359        H  0.58792789  0.21864355  0.48196293     0.15400
H360        H  0.66174837  0.28064770  0.51477673     0.16000
C361        C  0.86595968  0.23486908  0.99593409    -0.13600
C362        C  0.88259981  0.26546980  0.01678928    -0.28800
H363        H  0.89748759  0.21746410  0.97832077     0.15400
H364        H  0.85048678  0.28237330  0.03484479     0.16000
C365        C  0.65117768  0.25530512  0.99717133    -0.13600
C366        C  0.59668281  0.24568559  0.98496383    -0.28800
H367        H  0.65997827  0.28217962  0.00628168     0.15400
H368        H  0.58747499  0.21887185  0.97602270     0.16000
C369        C  0.73765383  0.13366084  0.50960163    -0.10400
C370        C  0.73475530  0.10238124  0.51089588    -0.12000
C371        C  0.73980082  0.85887538  0.52379244    -0.10400
C372        C  0.73835789  0.89021548  0.52126905    -0.12000
C373        C  0.73495449  0.99902512  0.68536807    -0.15700
C374        C  0.73351266  0.99995131  0.73566928     0.08400
C375        C  0.73138246  0.00085023  0.79455423     0.10300
C376        C  0.72998106  0.00129661  0.84487819    -0.16500
C377        C  0.73471640  0.99527144  0.34511705    -0.15700
C378        C  0.73334553  0.99602658  0.29469014     0.08400
C379        C  0.73136385  0.99733409  0.23564419     0.10300
C380        C  0.73005073  0.99846529  0.18523104    -0.16500
C381        C  0.73559353  0.13631440  0.01031043    -0.10400
C382        C  0.73182221  0.10538072  0.01336142    -0.12000
C383        C  0.72878490  0.89575208  0.01138585    -0.10400
C384        C  0.73261083  0.86479434  0.00814796    -0.12000
loop_ 
_geom_bond_atom_site_label_1 
_geom_bond_atom_site_label_2 
_geom_bond_distance 
_geom_bond_site_symmetry_2 
_ccdc_geom_bond_type 
O1           Cu9   2.005   1_565  S
O1           C11   1.276       .  A
O2           Cu9   2.006       .  S
O2           C12   1.276       .  A
O3           Cu9   2.015   1_565  S
O3           C13   1.277       .  A
O4           Cu9   2.014   1_554  S
O4           C14   1.277       .  A
O5          Cu10   2.004   1_554  S
O5           C14   1.276   1_565  A
O6          Cu10   2.006       .  S
O6           C13   1.276       .  A
O7          Cu10   2.002   1_545  S
O7           C12   1.276       .  A
O8          Cu10   2.001       .  S
O8           C11   1.276       .  A
Cu9         Cu10   2.381   1_545  S
C11         C191   1.429       .  S
C12         C190   1.430       .  S
C13         C184   1.435       .  S
C14         C188   1.435       .  S
O15         Cu23   2.014       .  S
O15          C25   1.277       .  A
O16         Cu23   2.014       .  S
O16          C26   1.277       .  A
O17         Cu23   2.023       .  S
O17          C27   1.278       .  A
O18         Cu23   2.020   1_545  S
O18          C28   1.278       .  A
O19         Cu24   2.031   1_545  S
O19          C28   1.279       .  A
O20         Cu24   2.031       .  S
O20          C27   1.279       .  A
O21         Cu24   2.005       .  S
O21          C26   1.276       .  A
O22         Cu24   2.005       .  S
O22          C25   1.275       .  A
Cu23        Cu24   2.377       .  S
C25         C185   1.435       .  S
C26         C181   1.435       .  S
C27         C180   1.449       .  S
C28         C178   1.448       .  S
C29         C189   1.436       .  S
C29          C30   1.397   1_556  A
C29          C34   1.396       .  A
C30          C31   1.407       .  A
C30          H35   1.082       .  S
C31          C32   1.412   1_554  A
C31         C173   1.493       .  S
C32          C33   1.415       .  A
C32          H36   1.081   1_556  S
C33          C34   1.401       .  A
C33         C169   1.493       .  S
C34          H37   1.085       .  S
C38         C177   1.453       .  S
C38          C39   1.405       .  A
C38          C43   1.402       .  A
C39          C40   1.414       .  A
C39          H44   1.081       .  S
C40          C41   1.412       .  A
C40         C166   1.502       .  S
C41          C42   1.414       .  A
C41          H45   1.080       .  S
C42          C43   1.406       .  A
C42         C161   1.501       .  S
C43          H46   1.084       .  S
C47         C192   1.435   1_554  S
C47          C48   1.395   1_554  A
C47          C52   1.396       .  A
C48          C49   1.400       .  A
C48          H53   1.085       .  S
C49          C50   1.415   1_556  A
C49         C158   1.492       .  S
C50          C51   1.413       .  A
C50          H54   1.081       .  S
C51          C52   1.407       .  A
C51         C153   1.492       .  S
C52          H55   1.082       .  S
C56         C179   1.453       .  S
C56          C57   1.408       .  A
C56          C61   1.404       .  A
C57          C58   1.413       .  A
C57          H62   1.083       .  S
C58          C59   1.394       .  A
C58         C149   1.478       .  S
C59          C60   1.392       .  A
C59          H63   1.085       .  S
C60          C61   1.410       .  A
C60         C146   1.476       .  S
C61          H64   1.083       .  S
C65         C143   1.435       .  S
C65          C70   1.397       .  A
C65         C258   1.395   1_455  A
C66          C67   1.399       .  A
C66         C257   1.396       .  A
C66          H71   1.085       .  S
C67         C260   1.413       .  A
C67         C157   1.490   1_556  S
C68          C69   1.413   1_655  A
C68         C259   1.414       .  A
C68          H72   1.081       .  S
C69          C70   1.408       .  A
C69         C154   1.494       .  S
C70          H73   1.081       .  S
C74         C141   1.454       .  S
C74          C79   1.406       .  A
C74         C267   1.409   1_455  A
C75          C76   1.412       .  A
C75         C266   1.406       .  A
C75          H80   1.084       .  S
C76         C269   1.394       .  A
C76         C150   1.476       .  S
C77          C78   1.392   1_655  A
C77         C268   1.393       .  A
C77          H81   1.086       .  S
C78          C79   1.410       .  A
C78         C145   1.477       .  S
C79          H82   1.083       .  S
C83         C140   1.435       .  S
C83          C88   1.396       .  A
C83         C276   1.397       .  A
C84          C85   1.408       .  A
C84         C275   1.397       .  A
C84          H89   1.081       .  S
C85         C278   1.413   1_455  A
C85         C174   1.495       .  S
C86          C87   1.413       .  A
C86         C277   1.412       .  A
C86          H90   1.083       .  S
C87          C88   1.400       .  A
C87         C170   1.489       .  S
C88          H91   1.085       .  S
C92         C330   1.451       .  S
C92          C93   1.401       .  A
C92         C289   1.404       .  A
C93          C94   1.406       .  A
C93          H98   1.084       .  S
C94         C287   1.413       .  A
C94         C162   1.498       .  S
C95          C96   1.412   1_655  A
C95         C286   1.413       .  A
C95          H99   1.080       .  S
C96          C97   1.414       .  A
C96         C165   1.502       .  S
C97         C284   1.405       .  A
C97         H100   1.081       .  S
O101       Cu109   2.006       .  S
O101        C303   1.276       .  A
O102       Cu109   2.007   1_554  S
O102        C304   1.276       .  A
O103       Cu109   2.000       .  S
O103        C305   1.275       .  A
O104       Cu109   2.000       .  S
O104        C114   1.275       .  A
O105       Cu110   2.006       .  S
O105        C306   1.276       .  A
O106       Cu110   2.005       .  S
O106        C113   1.276       .  A
O107       Cu110   2.014       .  S
O107        C112   1.277       .  A
O108       Cu110   2.014   1_556  S
O108        C111   1.277       .  A
Cu109      Cu302   2.381       .  S
Cu110      Cu301   2.381   1_455  S
C111        O293   1.276   1_455  A
C111        C132   1.436       .  S
C112        O294   1.276   1_455  A
C112        C136   1.435       .  S
C113        O295   1.276   1_455  A
C113        C144   1.430       .  S
C114        O297   1.276       .  A
C114        C139   1.429       .  S
O115       Cu123   2.021       .  S
O115        C317   1.277       .  A
O116       Cu123   2.019       .  S
O116        C318   1.277       .  A
O117       Cu123   2.013       .  S
O117        C319   1.277       .  A
O118       Cu123   2.013       .  S
O118        C320   1.277       .  A
O119       Cu124   2.006       .  S
O119        C128   1.276       .  A
O120       Cu124   2.007       .  S
O120        C127   1.276       .  A
O121       Cu124   2.032       .  S
O121        C126   1.279       .  A
O122       Cu124   2.032       .  S
O122        C125   1.279       .  A
Cu123      Cu316   2.378       .  S
Cu124      Cu315   2.377   1_455  S
C125        O307   1.278   1_455  A
C125        C142   1.450       .  S
C126        O308   1.278   1_455  A
C126        C137   1.449       .  S
C127        O309   1.277   1_455  A
C127        C129   1.436       .  S
C128        O310   1.277   1_455  A
C128        C133   1.435       .  S
C129        C130   1.206       .  T
C130        C131   1.413       .  S
C131        C132   1.206       .  T
C133        C134   1.205       .  T
C134        C327   1.412       .  S
C135        C328   1.206       .  T
C135        C326   1.412       .  S
C136        C327   1.206       .  T
C137        C138   1.214       .  T
C138        C284   1.454       .  S
C139        C140   1.203       .  T
C141        C142   1.214       .  T
C143        C144   1.203       .  T
C145        C146   1.336       .  D
C145        H147   1.087       .  S
C146        H148   1.086       .  S
C149        C150   1.338       .  D
C149        H151   1.088       .  S
C150        H152   1.086       .  S
C153        C154   1.355       .  D
C153        H155   1.083       .  S
C154        H156   1.084   1_554  S
C157        C158   1.345   1_554  D
C157        H159   1.084       .  S
C158        H160   1.085       .  S
C161        C162   1.352       .  D
C161        H163   1.085       .  S
C162        H164   1.083       .  S
C165        C166   1.353       .  D
C165        H167   1.084       .  S
C166        H168   1.083       .  S
C169        C170   1.346       .  D
C169        H171   1.086       .  S
C170        H172   1.084   1_556  S
C173        C174   1.355       .  D
C173        H175   1.083       .  S
C174        H176   1.084   1_554  S
C177        C178   1.213       .  T
C179        C180   1.214       .  T
C181        C182   1.206       .  T
C182        C183   1.412       .  S
C183        C184   1.206       .  T
C185        C186   1.205       .  T
C186        C187   1.412       .  S
C187        C188   1.205   1_565  T
C189        C190   1.203       .  T
C191        C192   1.203       .  T
O193       Cu201   2.007   1_565  S
O193        C203   1.276       .  A
O194       Cu201   2.007       .  S
O194        C204   1.276       .  A
O195       Cu201   2.011   1_556  S
O195        C205   1.277       .  A
O196       Cu201   2.014       .  S
O196        C206   1.277   1_545  A
O197       Cu202   2.008       .  S
O197        C206   1.276       .  A
O198       Cu202   2.006   1_546  S
O198        C205   1.276       .  A
O199       Cu202   1.999   1_545  S
O199        C204   1.275       .  A
O200       Cu202   1.998       .  S
O200        C203   1.275       .  A
Cu201      Cu202   2.381   1_545  S
C203        C383   1.429       .  S
C204        C382   1.429       .  S
C205        C376   1.434       .  S
C206        C380   1.436       .  S
O207       Cu215   2.014       .  S
O207        C217   1.277       .  A
O208       Cu215   2.012       .  S
O208        C218   1.277       .  A
O209       Cu215   2.021       .  S
O209        C219   1.277       .  A
O210       Cu215   2.019   1_545  S
O210        C220   1.277       .  A
O211       Cu216   2.029   1_545  S
O211        C220   1.279       .  A
O212       Cu216   2.030       .  S
O212        C219   1.279       .  A
O213       Cu216   2.005       .  S
O213        C218   1.276       .  A
O214       Cu216   2.007       .  S
O214        C217   1.276       .  A
Cu215      Cu216   2.377       .  S
C217        C377   1.436       .  S
C218        C373   1.434       .  S
C219        C372   1.448       .  S
C220        C370   1.446       .  S
C221        C381   1.435       .  S
C221        C222   1.396       .  A
C221        C226   1.396       .  A
C222        C223   1.408   1_554  A
C222        H227   1.081       .  S
C223        C224   1.413       .  A
C223        C365   1.494       .  S
C224        C225   1.413       .  A
C224        H228   1.083       .  S
C225        C226   1.399   1_556  A
C225        C361   1.489       .  S
C226        H229   1.085       .  S
C230        C369   1.451       .  S
C230        C231   1.403       .  A
C230        C235   1.402       .  A
C231        C232   1.413       .  A
C231        H236   1.081       .  S
C232        C233   1.412       .  A
C232        C358   1.500       .  S
C233        C234   1.413       .  A
C233        H237   1.082       .  S
C234        C235   1.406       .  A
C234        C353   1.499       .  S
C235        H238   1.084       .  S
C239        C384   1.435       .  S
C239        C240   1.396   1_554  A
C239        C244   1.397       .  A
C240        C241   1.399       .  A
C240        H245   1.085   1_556  S
C241        C242   1.413       .  A
C241        C350   1.490       .  S
C242        C243   1.412       .  A
C242        H246   1.082       .  S
C243        C244   1.408   1_556  A
C243        C345   1.494       .  S
C244        H247   1.081       .  S
C248        C371   1.452       .  S
C248        C249   1.406       .  A
C248        C253   1.404       .  A
C249        C250   1.412       .  A
C249        H254   1.083       .  S
C250        C251   1.393       .  A
C250        C341   1.478       .  S
C251        C252   1.395       .  A
C251        H255   1.085       .  S
C252        C253   1.410       .  A
C252        C338   1.475       .  S
C253        H256   1.083       .  S
C257        C335   1.435       .  S
C257        C262   1.398       .  A
C258        C259   1.400       .  A
C258        H263   1.085       .  S
C259        C349   1.492       .  S
C260        C261   1.411       .  A
C260        H264   1.082       .  S
C261        C262   1.407       .  A
C261        C346   1.492       .  S
C262        H265   1.082       .  S
C266        C333   1.451       .  S
C266        C271   1.403       .  A
C267        C268   1.413       .  A
C267        H272   1.083       .  S
C268        C342   1.479       .  S
C269        C270   1.394       .  A
C269        H273   1.085       .  S
C270        C271   1.409       .  A
C270        C337   1.474       .  S
C271        H274   1.084       .  S
C275        C332   1.436       .  S
C275        C280   1.396   1_455  A
C276        C277   1.407       .  A
C276        H281   1.082       .  S
C277        C366   1.491       .  S
C278        C279   1.415       .  A
C278        H282   1.081       .  S
C279        C280   1.400       .  A
C279        C362   1.493       .  S
C280        H283   1.085       .  S
C284        C285   1.403   1_455  A
C285        C286   1.407       .  A
C285        H290   1.084       .  S
C286        C354   1.502       .  S
C287        C288   1.412       .  A
C287        H291   1.082       .  S
C288        C289   1.413       .  A
C288        C357   1.499       .  S
C289        H292   1.082       .  S
O293       Cu301   2.006   1_556  S
O294       Cu301   2.006       .  S
O295       Cu301   2.001       .  S
O296       Cu301   2.002       .  S
O296        C306   1.276   1_655  A
O297       Cu302   2.006       .  S
O298       Cu302   2.006       .  S
O298        C305   1.276       .  A
O299       Cu302   2.014   1_554  S
O299        C304   1.277       .  A
O300       Cu302   2.013       .  S
O300        C303   1.277       .  A
C303        C324   1.435       .  S
C304        C328   1.435       .  S
C305        C336   1.429       .  S
C306        C331   1.430       .  S
O307       Cu315   2.024       .  S
O308       Cu315   2.022       .  S
O309       Cu315   2.014       .  S
O310       Cu315   2.013       .  S
O311       Cu316   2.007       .  S
O311        C320   1.276       .  A
O312       Cu316   2.006       .  S
O312        C319   1.276       .  A
O313       Cu316   2.028       .  S
O313        C318   1.279       .  A
O314       Cu316   2.029       .  S
O314        C317   1.279       .  A
C317        C334   1.447       .  S
C318        C329   1.446       .  S
C319        C321   1.435       .  S
C320        C325   1.435       .  S
C321        C322   1.206       .  T
C322        C323   1.412       .  S
C323        C324   1.206       .  T
C325        C326   1.206       .  T
C329        C330   1.212       .  T
C331        C332   1.203       .  T
C333        C334   1.213       .  T
C335        C336   1.203       .  T
C337        C338   1.339       .  D
C337        H339   1.086       .  S
C338        H340   1.087       .  S
C341        C342   1.337       .  D
C341        H343   1.086       .  S
C342        H344   1.087       .  S
C345        C346   1.354       .  D
C345        H347   1.084   1_556  S
C346        H348   1.083       .  S
C349        C350   1.345   1_554  D
C349        H351   1.086       .  S
C350        H352   1.084       .  S
C353        C354   1.353       .  D
C353        H355   1.083       .  S
C354        H356   1.085       .  S
C357        C358   1.354       .  D
C357        H359   1.083       .  S
C358        H360   1.084       .  S
C361        C362   1.345   1_556  D
C361        H363   1.084       .  S
C362        H364   1.086       .  S
C365        C366   1.355       .  D
C365        H367   1.084   1_556  S
C366        H368   1.083       .  S
C369        C370   1.213       .  T
C371        C372   1.213       .  T
C373        C374   1.205       .  T
C374        C375   1.411   1_565  S
C375        C376   1.205       .  T
C377        C378   1.206       .  T
C378        C379   1.413       .  S
C379        C380   1.206       .  T
C381        C382   1.202       .  T
C383        C384   1.203       .  T
