geometry optimzed in LAMMPS
_audit_creation_date              2020-11-30 
_audit_creation_method            'lammps2cif' 
_symmetry_space_group_name_H-M    'P1' 
_symmetry_Int_Tables_number       1 
_symmetry_cell_setting            triclinic 
loop_ 
_symmetry_equiv_pos_as_xyz 
  x,y,z 
_cell_length_a                    41.930977271795186 
_cell_length_b                    41.909937893789746 
_cell_length_c                    31.929878825394105 
_cell_angle_alpha                 90.29973619621387 
_cell_angle_beta                  89.68801856644211 
_cell_angle_gamma                 68.38149051828766 
loop_ 
_atom_site_label 
_atom_site_type_symbol 
_atom_site_fract_x 
_atom_site_fract_y 
_atom_site_fract_z 
_atom_site_charge 
O1          O  0.08934020  0.47109754  0.08416636    -0.74950
O2          O  0.08899106  0.01652997  0.04462714    -0.53860
C3          C  0.10159961  0.49372181  0.07297214     0.78770
O4          O  0.02652092  0.40344748  0.42050561    -0.59550
O5          O  0.47698077  0.40881025  0.45520377    -0.52580
C6          C  0.50148357  0.39375862  0.42922462     0.70790
O7          O  0.09368183  0.46643471  0.42122963    -0.74110
O8          O  0.08898255  0.01655254  0.45383338    -0.54680
C9          C  0.10405548  0.49122331  0.42882977     0.76790
O10         O  0.02277954  0.40813803  0.08615276    -0.59260
O11         O  0.47702269  0.40923930  0.04684117    -0.52380
C12         C  0.49959300  0.39648559  0.07530565     0.73380
Zr13       Zr  0.04197012  0.45393596  0.06455628     2.54710
O14         O  0.09288118  0.40160935  0.06614181    -0.79820
O15         O  0.03815814  0.45822874  0.14065419    -0.93240
Zr16       Zr  0.04509291  0.45032774  0.43966419     2.64680
O17         O  0.09657718  0.39847608  0.44053011    -0.98190
O18         O  0.04402319  0.45108699  0.36340660    -0.80260
O19         O  0.06315032  0.46956564  0.50193254    -0.83610
O20         O  0.02583421  0.43290485  0.50238357    -2.18320
O21         O  0.41119140  0.02125701  0.08189960    -0.67000
O22         O  0.41545970  0.47231690  0.04684052    -0.51570
C23         C  0.40074143  0.99667507  0.07323094     0.71770
O24         O  0.47795354  0.08343941  0.41872732    -0.59910
O25         O  0.02600592  0.07965095  0.45453874    -0.51890
C26         C  0.00195338  0.09449911  0.42845877     0.73570
O27         O  0.41563407  0.01390741  0.41394386    -0.71310
O28         O  0.41689800  0.46949225  0.45531726    -0.49980
C29         C  0.40418726  0.99050862  0.42540744     0.74950
O30         O  0.47600630  0.08646242  0.07809876    -0.66640
O31         O  0.02638529  0.08019913  0.04493269    -0.53830
C32         C  0.00121406  0.09600849  0.06979328     0.73330
Zr33       Zr  0.45826419  0.03886217  0.06017615     2.77540
O34         O  0.40838428  0.09148437  0.05240971    -0.97390
O35         O  0.45668943  0.04193534  0.13634056    -0.78210
Zr36       Zr  0.46092042  0.03483811  0.43575106     2.70070
O37         O  0.40790079  0.08498411  0.43367652    -0.79450
O38         O  0.46672071  0.03230592  0.35979279    -0.98540
Zr39       Zr  0.03929614  0.03046394  0.49962444     2.21500
Zr40       Zr  0.46493291  0.45802712  0.00108175     2.11130
O41         O  0.44016011  0.01903420  0.99844906    -2.47220
O42         O  0.47833769  0.05538935  0.99760855    -0.79250
O43         O  0.48123307  0.47803609  0.06409111    -0.71440
O44         O  0.02191044  0.01112660  0.43646494    -2.32400
O45         O  0.01907227  0.01478499  0.06319629    -2.28610
O46         O  0.48432804  0.47399403  0.43727340    -0.73200
H47         H  0.03374122  0.40816036  0.50315105     0.78800
H48         H  0.03084314  0.01891988  0.41227671     0.79880
H49         H  0.41541721  0.02706398  0.99788055     0.82110
H50         H  0.02698051  0.02379042  0.08722689     0.79720
H51         H  0.04422844  0.47386579  0.35572474     0.42750
H52         H  0.46935365  0.00850960  0.35228000     0.41720
H53         H  0.40858202  0.09829885  0.45913796     0.41400
H54         H  0.39068454  0.08420761  0.03962070     0.39330
H55         H  0.46648544  0.01768844  0.14532809     0.42460
H56         H  0.03747698  0.48157528  0.14727820     0.37250
H57         H  0.10393483  0.40074054  0.03845657     0.43370
H58         H  0.09105526  0.38288479  0.45996643     0.39780
H59         H  0.40024519  0.09841170  0.08142126     0.44700
H60         H  0.06095435  0.44271341  0.15038437     0.43420
H61         H  0.09745480  0.38795663  0.41249712     0.43560
H62         H  0.44364696  0.04662165  0.34956413     0.43920
C63         C  0.00583272  0.27215761  0.15878822     0.03470
C64         C  0.00102347  0.24490733  0.13764830    -0.12680
C65         C  0.00358105  0.21513122  0.15903552     0.00970
C66         C  0.00695360  0.21390566  0.20264684    -0.11210
C67         C  0.01019304  0.24149163  0.22558855     0.03460
C68         C  0.01145538  0.26969413  0.20230900    -0.10630
H69         H  0.99576794  0.24643482  0.10441253     0.09050
H70         H  0.00629885  0.19120806  0.21767026     0.06580
H71         H  0.01672695  0.29028017  0.21726507     0.06430
C72         C  0.00318744  0.27309784  0.33992740     0.03470
C73         C  0.00256847  0.24435579  0.36145821    -0.12680
C74         C  0.00619427  0.21407058  0.33979606     0.00970
C75         C  0.01165733  0.21247865  0.29624112    -0.11210
C76         C  0.01017395  0.24170993  0.27309052     0.03460
C77         C  0.00645268  0.27182005  0.29613558    -0.10630
H78         H  0.99878425  0.24579935  0.39512539     0.09050
H79         H  0.01689796  0.18798960  0.28123190     0.06580
H80         H  0.00585826  0.29488648  0.28094746     0.06430
C81         C  0.28223037  0.48889811  0.15921088     0.03470
C82         C  0.28373412  0.48508891  0.20259812    -0.12680
C83         C  0.25657119  0.48105038  0.22554048     0.00970
C84         C  0.22858871  0.47918834  0.20226946    -0.11210
C85         C  0.22594751  0.48499906  0.15865777     0.03460
C86         C  0.25281857  0.49071712  0.13771535    -0.10630
H87         H  0.30640627  0.48598159  0.21732465     0.09050
H88         H  0.20842223  0.47332114  0.21742350     0.06580
H89         H  0.25113082  0.49670315  0.10468758     0.06430
C90         C  0.28555492  0.48225355  0.33947954     0.03470
C91         C  0.25653364  0.48316522  0.36190690    -0.12680
C92         C  0.22755639  0.48309799  0.34057550     0.00970
C93         C  0.22747927  0.48243024  0.29662326    -0.11210
C94         C  0.25692357  0.48025580  0.27302091     0.03460
C95         C  0.28612924  0.47946105  0.29573792    -0.10630
H96         H  0.25617269  0.48478632  0.39581374     0.09050
H97         H  0.20386101  0.48418751  0.28180825     0.06580
H98         H  0.30989328  0.47698304  0.28053477     0.06430
C99         C  0.00221293  0.12622195  0.40748607     0.00180
C100        C  0.48274882  0.13754983  0.37098345    -0.11690
C101        C  0.48320684  0.16622831  0.34901433     0.02420
C102        C  0.00411958  0.18400632  0.36278977     0.00100
C103        C  0.02283118  0.17341176  0.39980506    -0.11630
C104        C  0.02173554  0.14528911  0.42246143     0.02300
H105        H  0.46705939  0.12392557  0.35927605     0.15280
H106        H  0.03854728  0.18716413  0.41110206     0.15280
C107        C  0.04039546  0.13743821  0.46136713     0.36940
C108        C  0.46092010  0.17756147  0.31332710     0.36840
N109        N  0.05534853  0.13137012  0.49253035    -0.43410
N110        N  0.44305615  0.18668521  0.28475739    -0.43400
C111        C  0.00114274  0.36277347  0.40786711     0.00180
C112        C  0.47652623  0.36598513  0.37703757    -0.11690
C113        C  0.47657308  0.33717649  0.35454072     0.02420
C114        C  0.00125803  0.30438746  0.36351654     0.00100
C115        C  0.02530259  0.30126013  0.39523087    -0.11630
C116        C  0.02558618  0.33015288  0.41713478     0.02300
H117        H  0.45763816  0.39113623  0.37004511     0.15280
H118        H  0.04435418  0.27622966  0.40231504     0.15280
C119        C  0.05097710  0.32576090  0.44921750     0.36940
C120        C  0.45089876  0.34192859  0.32274528     0.36840
N121        N  0.07131601  0.32227461  0.97491898    -0.43410
N122        N  0.43052050  0.34574749  0.29700721    -0.43400
C123        C  0.00157912  0.12712546  0.09117172     0.00180
C124        C  0.03151914  0.12568235  0.11178281    -0.11690
C125        C  0.03251429  0.15407108  0.13416849     0.02420
C126        C  0.00330125  0.18472677  0.13561258     0.00100
C127        C  0.47366456  0.18651853  0.11406284    -0.11630
C128        C  0.47250604  0.15795305  0.09211594     0.02300
H129        H  0.05397520  0.10210426  0.11102314     0.15280
H130        H  0.45134212  0.21019958  0.11468919     0.15280
C131        C  0.44165424  0.16127317  0.06967843     0.36940
C132        C  0.06395132  0.15135365  0.15484590     0.36840
N133        N  0.41695025  0.16405413  0.05157122    -0.43410
N134        N  0.08911985  0.14920432  0.17144275    -0.43400
C135        C  0.99977041  0.36536098  0.09626601     0.00180
C136        C  0.01709683  0.33362332  0.07687210    -0.11690
C137        C  0.01975380  0.30297488  0.09648902     0.02420
C138        C  0.00391785  0.30390596  0.13609476     0.00100
C139        C  0.48599687  0.33611731  0.15496993    -0.11630
C140        C  0.48424027  0.36663783  0.13566758     0.02300
H141        H  0.02935816  0.33279581  0.04668557     0.15280
H142        H  0.47330870  0.33752456  0.18498676     0.15280
C143        C  0.46661125  0.39894693  0.15687460     0.36940
C144        C  0.04025621  0.27121135  0.07588642     0.36840
N145        N  0.45262371  0.42485660  0.17389073    -0.43410
N146        N  0.05655761  0.24587126  0.05903886    -0.43400
C147        C  0.37403035  0.48762434  0.40314636     0.00180
C148        C  0.35481589  0.01412371  0.37617728    -0.11690
C149        C  0.32591912  0.01288747  0.35541155     0.02420
C150        C  0.31547200  0.48486806  0.36155296     0.00100
C151        C  0.33429038  0.45844116  0.38827551    -0.11630
C152        C  0.36345744  0.45923613  0.40866647     0.02300
H153        H  0.36211161  0.03612725  0.37145962     0.15280
H154        H  0.32647507  0.43669366  0.39257840     0.15280
C155        C  0.38211798  0.42988975  0.43402823     0.36940
C156        C  0.30686405  0.04107243  0.32865610     0.36840
N157        N  0.39693992  0.40627721  0.45423926    -0.43410
N158        N  0.29153533  0.06359780  0.30717486    -0.43400
C159        C  0.19653989  0.48504150  0.36426085     0.00180
C160        C  0.16925862  0.01671290  0.36790997    -0.11690
C161        C  0.13907325  0.01950883  0.38930919     0.02420
C162        C  0.13581615  0.49005075  0.40720174     0.00100
C163        C  0.16327258  0.45833739  0.40338251    -0.11630
C164        C  0.19355889  0.45569552  0.38238338     0.02300
H165        H  0.17149482  0.03925082  0.35367110     0.15280
H166        H  0.16111274  0.43555758  0.41701726     0.15280
C167        C  0.22104310  0.42256850  0.37922927     0.36940
C168        C  0.11135077  0.05253317  0.39050926     0.36840
N169        N  0.24306943  0.39600939  0.37672698    -0.43410
N170        N  0.08926145  0.07910561  0.39109901    -0.43400
C171        C  0.36985173  0.49570304  0.09533929     0.00180
C172        C  0.36722126  0.46355775  0.10187174    -0.11690
C173        C  0.33869476  0.46095338  0.12224214     0.02420
C174        C  0.31201594  0.49084494  0.13632458     0.00100
C175        C  0.31426531  0.02290549  0.12992376    -0.11630
C176        C  0.34279789  0.02566768  0.10962229     0.02300
H177        H  0.38771169  0.44026168  0.09148301     0.15280
H178        H  0.29360919  0.04585342  0.14090172     0.15280
C179        C  0.34265488  0.05972506  0.10300175     0.36940
C180        C  0.33739458  0.42735942  0.12864977     0.36840
N181        N  0.34160972  0.08742997  0.09821075    -0.43410
N182        N  0.33635068  0.40044897  0.13381066    -0.43400
C183        C  0.19425790  0.48687144  0.13569075     0.00180
C184        C  0.16206989  0.50309390  0.15536800    -0.11630
C185        C  0.13162730  0.50551209  0.13543089     0.02420
C186        C  0.13279248  0.49294949  0.09431603     0.00100
C187        C  0.16448257  0.47709580  0.07421180    -0.11630
C188        C  0.19513829  0.47327695  0.09464630     0.02300
H189        H  0.16053557  0.51404934  0.18648653     0.15280
H190        H  0.16530275  0.46660566  0.04289820     0.15280
C191        C  0.22684089  0.45374571  0.07325938     0.36940
C192        C  0.09947413  0.52071011  0.15782621     0.36840
N193        N  0.25212914  0.43822165  0.05580411    -0.43410
N194        N  0.07371537  0.03263522  0.17583047    -0.43400
O195        O  0.08934020  0.47109753  0.58416636    -0.74950
O196        O  0.08899105  0.01652997  0.54462715    -0.53860
C197        C  0.10159962  0.49372179  0.57297214     0.78770
O198        O  0.02652092  0.40344748  0.92050561    -0.59550
O199        O  0.47698078  0.40881024  0.95520377    -0.52580
C200        C  0.50148358  0.39375862  0.92922462     0.70790
O201        O  0.09368184  0.46643472  0.92122962    -0.74110
O202        O  0.08898255  0.01655254  0.95383338    -0.54680
C203        C  0.10405548  0.49122332  0.92882976     0.76790
O204        O  0.02277953  0.40813803  0.58615276    -0.59260
O205        O  0.47702269  0.40923930  0.54684117    -0.52380
C206        C  0.49959299  0.39648559  0.57530566     0.73380
Zr207      Zr  0.04197012  0.45393596  0.56455629     2.54710
O208        O  0.09288118  0.40160934  0.56614181    -0.79820
O209        O  0.03815813  0.45822874  0.64065419    -0.93240
Zr210      Zr  0.04509292  0.45032774  0.93966419     2.64680
O211        O  0.09657719  0.39847608  0.94053011    -0.98190
O212        O  0.04402320  0.45108698  0.86340660    -0.80260
O213        O  0.06315032  0.46956564  0.00193254    -0.83610
O214        O  0.02583422  0.43290485  0.00238356    -2.18320
O215        O  0.41119138  0.02125704  0.58189960    -0.67000
O216        O  0.41545969  0.47231691  0.54684052    -0.51570
C217        C  0.40074141  0.99667511  0.57323093     0.71770
O218        O  0.47795355  0.08343940  0.91872733    -0.59910
O219        O  0.02600593  0.07965094  0.95453874    -0.51890
C220        C  0.00195338  0.09449910  0.92845877     0.73570
O221        O  0.41563409  0.01390739  0.91394386    -0.71310
O222        O  0.41689801  0.46949224  0.95531725    -0.49980
C223        C  0.40418728  0.99050860  0.92540744     0.74950
O224        O  0.47600630  0.08646244  0.57809876    -0.66640
O225        O  0.02638528  0.08019914  0.54493269    -0.53830
C226        C  0.00121406  0.09600851  0.56979327     0.73330
Zr227      Zr  0.45826417  0.03886219  0.56017615     2.77540
O228        O  0.40838428  0.09148440  0.55240968    -0.97390
O229        O  0.45668941  0.04193538  0.63634055    -0.78210
Zr230      Zr  0.46092043  0.03483809  0.93575106     2.70070
O231        O  0.40790080  0.08498409  0.93367652    -0.79450
O232        O  0.46672071  0.03230591  0.85979279    -0.98540
Zr233      Zr  0.03929615  0.03046393  0.99962444     2.21500
Zr234      Zr  0.46493291  0.45802712  0.50108175     2.11130
O235        O  0.44016010  0.01903422  0.49844906    -2.47220
O236        O  0.47833768  0.05538937  0.49760854    -0.79250
O237        O  0.48123307  0.47803609  0.56409112    -0.71440
O238        O  0.02191045  0.01112659  0.93646494    -2.32400
O239        O  0.01907226  0.01478501  0.56319629    -2.28610
O240        O  0.48432804  0.47399402  0.93727340    -0.73200
H241        H  0.03374123  0.40816036  0.00315104     0.78800
H242        H  0.03084315  0.01891987  0.91227671     0.79880
H243        H  0.41541720  0.02706401  0.49788055     0.82110
H244        H  0.02698049  0.02379044  0.58722688     0.79720
H245        H  0.04422844  0.47386579  0.85572473     0.42750
H246        H  0.46935366  0.00850958  0.85228001     0.41720
H247        H  0.40858202  0.09829883  0.95913796     0.41400
H248        H  0.39068452  0.08420764  0.53962071     0.39330
H249        H  0.46648543  0.01768848  0.64532809     0.42460
H250        H  0.03747698  0.48157528  0.64727820     0.37250
H251        H  0.10393482  0.40074053  0.53845657     0.43370
H252        H  0.09105527  0.38288480  0.95996644     0.39780
H253        H  0.40024520  0.09841176  0.58142123     0.44700
H254        H  0.06095435  0.44271341  0.65038437     0.43420
H255        H  0.09745480  0.38795663  0.91249712     0.43560
H256        H  0.44364696  0.04662163  0.84956413     0.43920
C257        C  0.00583274  0.27215761  0.65878823     0.03470
C258        C  0.00102348  0.24490733  0.63764831    -0.12680
C259        C  0.00358106  0.21513123  0.65903553     0.00970
C260        C  0.00695361  0.21390566  0.70264685    -0.11210
C261        C  0.01019306  0.24149163  0.72558856     0.03460
C262        C  0.01145540  0.26969413  0.70230902    -0.10630
H263        H  0.99576795  0.24643482  0.60441254     0.09050
H264        H  0.00629885  0.19120806  0.71767027     0.06580
H265        H  0.01672698  0.29028015  0.71726509     0.06430
C266        C  0.00318744  0.27309783  0.83992741     0.03470
C267        C  0.00256848  0.24435577  0.86145822    -0.12680
C268        C  0.00619429  0.21407057  0.83979606     0.00970
C269        C  0.01165735  0.21247864  0.79624112    -0.11210
C270        C  0.01017397  0.24170992  0.77309053     0.03460
C271        C  0.00645269  0.27182004  0.79613560    -0.10630
H272        H  0.99878426  0.24579934  0.89512540     0.09050
H273        H  0.01689799  0.18798959  0.78123191     0.06580
H274        H  0.00585826  0.29488648  0.78094747     0.06430
C275        C  0.28223035  0.48889814  0.65921089     0.03470
C276        C  0.28373409  0.48508898  0.70259813    -0.12680
C277        C  0.25657118  0.48105039  0.72554049     0.00970
C278        C  0.22858873  0.47918830  0.70226947    -0.11210
C279        C  0.22594753  0.48499901  0.65865777     0.03460
C280        C  0.25281857  0.49071709  0.63771534    -0.10630
H281        H  0.30640621  0.48598174  0.71732468     0.09050
H282        H  0.20842227  0.47332107  0.71742351     0.06580
H283        H  0.25113083  0.49670310  0.60468758     0.06430
C284        C  0.28555493  0.48225352  0.83947953     0.03470
C285        C  0.25653364  0.48316522  0.86190689    -0.12680
C286        C  0.22755638  0.48309802  0.84057549     0.00970
C287        C  0.22747925  0.48243029  0.79662325    -0.11210
C288        C  0.25692357  0.48025581  0.77302091     0.03460
C289        C  0.28612926  0.47946100  0.79573792    -0.10630
H290        H  0.25617270  0.48478632  0.89581374     0.09050
H291        H  0.20386098  0.48418760  0.78180824     0.06580
H292        H  0.30989331  0.47698294  0.78053475     0.06430
C293        C  0.00221294  0.12622194  0.90748607     0.00180
C294        C  0.48274883  0.13754982  0.87098344    -0.11690
C295        C  0.48320686  0.16622830  0.84901433     0.02420
C296        C  0.00411960  0.18400631  0.86278978     0.00100
C297        C  0.02283120  0.17341175  0.89980507    -0.11630
C298        C  0.02173555  0.14528910  0.92246144     0.02300
H299        H  0.46705941  0.12392555  0.85927605     0.15280
H300        H  0.03854729  0.18716411  0.91110207     0.15280
C301        C  0.04039546  0.13743820  0.96136714     0.36940
C302        C  0.46092013  0.17756145  0.81332709     0.36840
N303        N  0.05534853  0.13137011  0.99253037    -0.43410
N304        N  0.44305618  0.18668519  0.78475738    -0.43400
C305        C  0.00114275  0.36277347  0.90786711     0.00180
C306        C  0.47652623  0.36598512  0.87703759    -0.11690
C307        C  0.47657309  0.33717647  0.85454074     0.02420
C308        C  0.00125803  0.30438745  0.86351655     0.00100
C309        C  0.02530260  0.30126012  0.89523087    -0.11630
C310        C  0.02558619  0.33015288  0.91713478     0.02300
H311        H  0.45763816  0.39113622  0.87004512     0.15280
H312        H  0.04435420  0.27622965  0.90231504     0.15280
C313        C  0.05097712  0.32576090  0.94921749     0.36940
C314        C  0.45089876  0.34192858  0.82274531     0.36840
N315        N  0.07131599  0.32227461  0.47491900    -0.43410
N316        N  0.43052050  0.34574747  0.79700724    -0.43400
C317        C  0.00157912  0.12712548  0.59117172     0.00180
C318        C  0.03151914  0.12568235  0.61178281    -0.11690
C319        C  0.03251429  0.15407108  0.63416850     0.02420
C320        C  0.00330125  0.18472678  0.63561259     0.00100
C321        C  0.47366457  0.18651853  0.61406284    -0.11630
C322        C  0.47250605  0.15795306  0.59211593     0.02300
H323        H  0.05397520  0.10210426  0.61102315     0.15280
H324        H  0.45134213  0.21019959  0.61468919     0.15280
C325        C  0.44165425  0.16127319  0.56967842     0.36940
C326        C  0.06395132  0.15135364  0.65484591     0.36840
N327        N  0.41695026  0.16405415  0.55157120    -0.43410
N328        N  0.08911985  0.14920431  0.67144277    -0.43400
C329        C  0.99977041  0.36536098  0.59626602     0.00180
C330        C  0.01709682  0.33362332  0.57687210    -0.11690
C331        C  0.01975380  0.30297488  0.59648903     0.02420
C332        C  0.00391787  0.30390596  0.63609478     0.00100
C333        C  0.48599688  0.33611731  0.65496994    -0.11630
C334        C  0.48424027  0.36663783  0.63566759     0.02300
H335        H  0.02935814  0.33279582  0.54668557     0.15280
H336        H  0.47330872  0.33752455  0.68498678     0.15280
C337        C  0.46661126  0.39894693  0.65687462     0.36940
C338        C  0.04025621  0.27121135  0.57588643     0.36840
N339        N  0.45262372  0.42485659  0.67389075    -0.43410
N340        N  0.05655760  0.24587127  0.55903886    -0.43400
C341        C  0.37403036  0.48762432  0.90314636     0.00180
C342        C  0.35481593  0.01412366  0.87617725    -0.11690
C343        C  0.32591916  0.01288742  0.85541151     0.02420
C344        C  0.31547202  0.48486803  0.86155294     0.00100
C345        C  0.33429038  0.45844114  0.88827553    -0.11630
C346        C  0.36345743  0.45923612  0.90866650     0.02300
H347        H  0.36211166  0.03612719  0.87145957     0.15280
H348        H  0.32647505  0.43669365  0.89257846     0.15280
C349        C  0.38211795  0.42988977  0.93402831     0.36940
C350        C  0.30686411  0.04107237  0.82865604     0.36840
N351        N  0.39693987  0.40627724  0.95423937    -0.43410
N352        N  0.29153541  0.06359773  0.80717477    -0.43400
C353        C  0.19653988  0.48504153  0.86426085     0.00180
C354        C  0.16925860  0.01671292  0.86790993    -0.11690
C355        C  0.13907323  0.01950883  0.88930915     0.02420
C356        C  0.13581615  0.49005076  0.90720174     0.00100
C357        C  0.16327259  0.45833741  0.90338253    -0.11630
C358        C  0.19355889  0.45569555  0.88238340     0.02300
H359        H  0.17149478  0.03925083  0.85367102     0.15280
H360        H  0.16111275  0.43555760  0.91701729     0.15280
C361        C  0.22104312  0.42256854  0.87922931     0.36940
C362        C  0.11135073  0.05253316  0.89050917     0.36840
N363        N  0.24306946  0.39600944  0.87672704    -0.43410
N364        N  0.08926139  0.07910559  0.89109889    -0.43400
C365        C  0.36985172  0.49570306  0.59533930     0.00180
C366        C  0.36722122  0.46355777  0.60187171    -0.11690
C367        C  0.33869473  0.46095341  0.62224211     0.02420
C368        C  0.31201592  0.49084496  0.63632459     0.00100
C369        C  0.31426529  0.02290555  0.62992380    -0.11630
C370        C  0.34279788  0.02566774  0.60962232     0.02300
H371        H  0.38771165  0.44026170  0.59148295     0.15280
H372        H  0.29360920  0.04585348  0.64090180     0.15280
C373        C  0.34265491  0.05972511  0.60300184     0.36940
C374        C  0.33739452  0.42735946  0.62864971     0.36840
N375        N  0.34160977  0.08743002  0.59821088    -0.43410
N376        N  0.33635061  0.40044901  0.63381058    -0.43400
C377        C  0.19425792  0.48687138  0.63569076     0.00180
C378        C  0.16206991  0.50309384  0.65536801    -0.11630
C379        C  0.13162732  0.50551205  0.63543090     0.02420
C380        C  0.13279249  0.49294946  0.59431603     0.00100
C381        C  0.16448258  0.47709577  0.57421180    -0.11630
C382        C  0.19513830  0.47327690  0.59464630     0.02300
H383        H  0.16053560  0.51404928  0.68648654     0.15280
H384        H  0.16530275  0.46660564  0.54289819     0.15280
C385        C  0.22684090  0.45374567  0.57325938     0.36940
C386        C  0.09947414  0.52071006  0.65782622     0.36840
N387        N  0.25212915  0.43822160  0.55580411    -0.43410
N388        N  0.07371536  0.03263521  0.67583048    -0.43400
O389        O  0.08934020  0.97109753  0.08416636    -0.74950
O390        O  0.08899105  0.51652997  0.04462714    -0.53860
C391        C  0.10159962  0.99372180  0.07297214     0.78770
O392        O  0.02652091  0.90344749  0.42050562    -0.59550
O393        O  0.47698076  0.90881025  0.45520378    -0.52580
C394        C  0.50148357  0.89375863  0.42922463     0.70790
O395        O  0.09368183  0.96643472  0.42122963    -0.74110
O396        O  0.08898256  0.51655253  0.45383338    -0.54680
C397        C  0.10405547  0.99122332  0.42882977     0.76790
O398        O  0.02277955  0.90813802  0.08615275    -0.59260
O399        O  0.47702269  0.90923930  0.04684117    -0.52380
C400        C  0.49959300  0.89648558  0.07530565     0.73380
Zr401      Zr  0.04197013  0.95393595  0.06455628     2.54710
O402        O  0.09288119  0.90160934  0.06614181    -0.79820
O403        O  0.03815814  0.95822873  0.14065419    -0.93240
Zr404      Zr  0.04509291  0.95032775  0.43966420     2.64680
O405        O  0.09657717  0.89847609  0.44053011    -0.98190
O406        O  0.04402318  0.95108700  0.36340660    -0.80260
O407        O  0.06315031  0.96956565  0.50193254    -0.83610
O408        O  0.02583420  0.93290486  0.50238357    -2.18320
O409        O  0.41119140  0.52125702  0.08189960    -0.67000
O410        O  0.41545970  0.97231689  0.04684052    -0.51570
C411        C  0.40074143  0.49667508  0.07323094     0.71770
O412        O  0.47795354  0.58343941  0.41872734    -0.59910
O413        O  0.02600593  0.57965095  0.45453874    -0.51890
C414        C  0.00195338  0.59449911  0.42845878     0.73570
O415        O  0.41563408  0.51390740  0.41394386    -0.71310
O416        O  0.41689799  0.96949226  0.45531725    -0.49980
C417        C  0.40418727  0.49050861  0.42540744     0.74950
O418        O  0.47600631  0.58646242  0.07809876    -0.66640
O419        O  0.02638529  0.58019913  0.04493269    -0.53830
C420        C  0.00121407  0.59600849  0.06979328     0.73330
Zr421      Zr  0.45826419  0.53886218  0.06017615     2.77540
O422        O  0.40838429  0.59148438  0.05240968    -0.97390
O423        O  0.45668942  0.54193537  0.13634055    -0.78210
Zr424      Zr  0.46092043  0.53483810  0.43575106     2.70070
O425        O  0.40790080  0.58498409  0.43367652    -0.79450
O426        O  0.46672072  0.53230591  0.35979279    -0.98540
Zr427      Zr  0.03929615  0.53046393  0.49962444     2.21500
Zr428      Zr  0.46493292  0.95802711  0.00108175     2.11130
O429        O  0.44016011  0.51903421  0.99844906    -2.47220
O430        O  0.47833768  0.55538936  0.99760854    -0.79250
O431        O  0.48123307  0.97803608  0.06409111    -0.71440
O432        O  0.02191045  0.51112659  0.43646495    -2.32400
O433        O  0.01907227  0.51478500  0.06319628    -2.28610
O434        O  0.48432803  0.97399404  0.43727340    -0.73200
H435        H  0.03374121  0.90816037  0.50315105     0.78800
H436        H  0.03084315  0.51891988  0.41227671     0.79880
H437        H  0.41541721  0.52706399  0.99788055     0.82110
H438        H  0.02698051  0.52379043  0.08722688     0.79720
H439        H  0.04422844  0.97386580  0.35572474     0.42750
H440        H  0.46935366  0.50850959  0.35228001     0.41720
H441        H  0.40858202  0.59829883  0.45913797     0.41400
H442        H  0.39068454  0.58420762  0.03962069     0.39330
H443        H  0.46648544  0.51768847  0.14532809     0.42460
H444        H  0.03747699  0.98157526  0.14727820     0.37250
H445        H  0.10393482  0.90074052  0.03845656     0.43370
H446        H  0.09105525  0.88288480  0.45996643     0.39780
H447        H  0.40024519  0.59841173  0.08142123     0.44700
H448        H  0.06095435  0.94271339  0.15038437     0.43420
H449        H  0.09745479  0.88795664  0.41249711     0.43560
H450        H  0.44364697  0.54662164  0.34956413     0.43920
C451        C  0.00583274  0.77215760  0.15878823     0.03470
C452        C  0.00102350  0.74490731  0.13764831    -0.12680
C453        C  0.00358110  0.71513121  0.15903552     0.00970
C454        C  0.00695365  0.71390565  0.20264685    -0.11210
C455        C  0.01019307  0.74149162  0.22558856     0.03460
C456        C  0.01145539  0.76969413  0.20230902    -0.10630
H457        H  0.99576799  0.74643480  0.10441254     0.09050
H458        H  0.00629891  0.69120803  0.21767026     0.06580
H459        H  0.01672693  0.79028018  0.21726509     0.06430
C460        C  0.00318746  0.77309783  0.33992742     0.03470
C461        C  0.00256848  0.74435578  0.36145823    -0.12680
C462        C  0.00619427  0.71407058  0.33979607     0.00970
C463        C  0.01165733  0.71247864  0.29624113    -0.11210
C464        C  0.01017397  0.74170992  0.27309053     0.03460
C465        C  0.00645272  0.77182003  0.29613560    -0.10630
H466        H  0.99878425  0.74579935  0.39512540     0.09050
H467        H  0.01689794  0.68798960  0.28123192     0.06580
H468        H  0.00585833  0.79488646  0.28094748     0.06430
C469        C  0.28223038  0.98889809  0.15921088     0.03470
C470        C  0.28373413  0.98508888  0.20259812    -0.12680
C471        C  0.25657119  0.98105037  0.22554049     0.00970
C472        C  0.22858871  0.97918833  0.20226947    -0.11210
C473        C  0.22594752  0.98499904  0.15865778     0.03460
C474        C  0.25281857  0.99071710  0.13771535    -0.10630
H475        H  0.30640629  0.98598155  0.21732465     0.09050
H476        H  0.20842223  0.97332114  0.21742351     0.06580
H477        H  0.25113083  0.99670313  0.10468759     0.06430
C478        C  0.28555491  0.98225356  0.33947954     0.03470
C479        C  0.25653363  0.98316523  0.36190690    -0.12680
C480        C  0.22755638  0.98309799  0.34057550     0.00970
C481        C  0.22747926  0.98243022  0.29662326    -0.11210
C482        C  0.25692357  0.98025579  0.27302091     0.03460
C483        C  0.28612924  0.97946106  0.29573793    -0.10630
H484        H  0.25617268  0.98478633  0.39581375     0.09050
H485        H  0.20386101  0.98418749  0.28180826     0.06580
H486        H  0.30989327  0.97698306  0.28053478     0.06430
C487        C  0.00221293  0.62622195  0.40748608     0.00180
C488        C  0.48274880  0.63754984  0.37098347    -0.11690
C489        C  0.48320682  0.66622833  0.34901436     0.02420
C490        C  0.00411957  0.68400632  0.36278979     0.00100
C491        C  0.02283119  0.67341176  0.39980507    -0.11630
C492        C  0.02173554  0.64528911  0.42246144     0.02300
H493        H  0.46705937  0.62392558  0.35927608     0.15280
H494        H  0.03854729  0.68716412  0.41110206     0.15280
C495        C  0.04039547  0.63743820  0.46136713     0.36940
C496        C  0.46092007  0.67756149  0.31332714     0.36840
N497        N  0.05534856  0.63137010  0.49253035    -0.43410
N498        N  0.44305611  0.68668525  0.28475744    -0.43400
C499        C  0.00114275  0.86277347  0.40786712     0.00180
C500        C  0.47652625  0.86598513  0.37703756    -0.11690
C501        C  0.47657311  0.83717648  0.35454071     0.02420
C502        C  0.00125805  0.80438746  0.36351655     0.00100
C503        C  0.02530259  0.80126012  0.39523090    -0.11630
C504        C  0.02558617  0.83015288  0.41713481     0.02300
H505        H  0.45763819  0.89113623  0.37004507     0.15280
H506        H  0.04435418  0.77622966  0.40231509     0.15280
C507        C  0.05097708  0.82576091  0.44921755     0.36940
C508        C  0.45089881  0.84192859  0.32274524     0.36840
N509        N  0.07131602  0.82227461  0.97491897    -0.43410
N510        N  0.43052058  0.84574748  0.29700714    -0.43400
C511        C  0.00157914  0.62712546  0.09117173     0.00180
C512        C  0.03151917  0.62568233  0.11178280    -0.11690
C513        C  0.03251433  0.65407106  0.13416849     0.02420
C514        C  0.00330129  0.68472676  0.13561259     0.00100
C515        C  0.47366459  0.68651851  0.11406287    -0.11630
C516        C  0.47250606  0.65795304  0.09211596     0.02300
H517        H  0.05397523  0.60210424  0.11102313     0.15280
H518        H  0.45134216  0.71019957  0.11468922     0.15280
C519        C  0.44165426  0.66127317  0.06967847     0.36940
C520        C  0.06395136  0.65135362  0.15484588     0.36840
N521        N  0.41695026  0.66405414  0.05157127    -0.43410
N522        N  0.08911990  0.64920429  0.17144272    -0.43400
C523        C  0.99977042  0.86536097  0.09626601     0.00180
C524        C  0.01709687  0.83362331  0.07687212    -0.11690
C525        C  0.01975385  0.80297487  0.09648905     0.02420
C526        C  0.00391787  0.80390595  0.13609477     0.00100
C527        C  0.48599683  0.83611731  0.15496990    -0.11630
C528        C  0.48424023  0.86663783  0.13566755     0.02300
H529        H  0.02935823  0.83279579  0.04668561     0.15280
H530        H  0.47330864  0.83752455  0.18498672     0.15280
C531        C  0.46661116  0.89894693  0.15687454     0.36940
C532        C  0.04025628  0.77121133  0.07588648     0.36840
N533        N  0.45262358  0.92485660  0.17389065    -0.43410
N534        N  0.05655770  0.74587125  0.05903894    -0.43400
C535        C  0.37403034  0.98762435  0.40314635     0.00180
C536        C  0.35481591  0.51412368  0.37617727    -0.11690
C537        C  0.32591915  0.51288745  0.35541153     0.02420
C538        C  0.31547199  0.98486808  0.36155296     0.00100
C539        C  0.33429038  0.95844116  0.38827549    -0.11630
C540        C  0.36345744  0.95923613  0.40866645     0.02300
H541        H  0.36211164  0.53612722  0.37145959     0.15280
H542        H  0.32647508  0.93669366  0.39257837     0.15280
C543        C  0.38211800  0.92988975  0.43402819     0.36940
C544        C  0.30686409  0.54107240  0.32865606     0.36840
N545        N  0.39693995  0.90627719  0.45423919    -0.43410
N546        N  0.29153538  0.56359776  0.30717480    -0.43400
C547        C  0.19653988  0.98504149  0.36426086     0.00180
C548        C  0.16925863  0.51671290  0.36790996    -0.11690
C549        C  0.13907325  0.51950883  0.38930918     0.02420
C550        C  0.13581615  0.99005075  0.40720175     0.00100
C551        C  0.16327258  0.95833739  0.40338251    -0.11630
C552        C  0.19355888  0.95569552  0.38238338     0.02300
H553        H  0.17149482  0.53925081  0.35367109     0.15280
H554        H  0.16111273  0.93555758  0.41701725     0.15280
C555        C  0.22104309  0.92256849  0.37922926     0.36940
C556        C  0.11135077  0.55253317  0.39050924     0.36840
N557        N  0.24306942  0.89600939  0.37672696    -0.43410
N558        N  0.08926145  0.57910560  0.39109899    -0.43400
C559        C  0.36985173  0.99570302  0.09533929     0.00180
C560        C  0.36722127  0.96355773  0.10187175    -0.11690
C561        C  0.33869478  0.96095335  0.12224216     0.02420
C562        C  0.31201595  0.99084491  0.13632458     0.00100
C563        C  0.31426530  0.52290551  0.12992376    -0.11630
C564        C  0.34279789  0.52566770  0.10962229     0.02300
H565        H  0.38771171  0.94026166  0.09148302     0.15280
H566        H  0.29360919  0.54585344  0.14090173     0.15280
C567        C  0.34265489  0.55972508  0.10300177     0.36940
C568        C  0.33739460  0.92735940  0.12864979     0.36840
N569        N  0.34160974  0.58742999  0.09821078    -0.43410
N570        N  0.33635071  0.90044894  0.13381069    -0.43400
C571        C  0.19425790  0.98687142  0.13569075     0.00180
C572        C  0.16206990  0.00309390  0.15536800    -0.11630
C573        C  0.13162731  0.00551209  0.13543088     0.02420
C574        C  0.13279248  0.99294948  0.09431603     0.00100
C575        C  0.16448257  0.97709578  0.07421180    -0.11630
C576        C  0.19513829  0.97327693  0.09464630     0.02300
H577        H  0.16053558  0.01404935  0.18648652     0.15280
H578        H  0.16530275  0.96660564  0.04289821     0.15280
C579        C  0.22684090  0.95374569  0.07325939     0.36940
C580        C  0.09947413  0.02071011  0.15782620     0.36840
N581        N  0.25212914  0.93822162  0.05580413    -0.43410
N582        N  0.07371537  0.53263521  0.17583048    -0.43400
O583        O  0.08934018  0.97109754  0.58416636    -0.74950
O584        O  0.08899106  0.51652996  0.54462714    -0.53860
C585        C  0.10159961  0.99372181  0.57297214     0.78770
O586        O  0.02652093  0.90344748  0.92050561    -0.59550
O587        O  0.47698078  0.90881024  0.95520377    -0.52580
C588        C  0.50148359  0.89375861  0.92922462     0.70790
O589        O  0.09368184  0.96643471  0.92122963    -0.74110
O590        O  0.08898255  0.51655254  0.95383337    -0.54680
C591        C  0.10405548  0.99122332  0.92882978     0.76790
O592        O  0.02277950  0.90813806  0.58615278    -0.59260
O593        O  0.47702267  0.90923931  0.54684117    -0.52380
C594        C  0.49959297  0.89648562  0.57530567     0.73380
Zr595      Zr  0.04197010  0.95393597  0.56455629     2.54710
O596        O  0.09288116  0.90160935  0.56614181    -0.79820
O597        O  0.03815813  0.95822875  0.64065420    -0.93240
Zr598      Zr  0.04509292  0.95032774  0.93966419     2.64680
O599        O  0.09657719  0.89847608  0.94053009    -0.98190
O600        O  0.04402319  0.95108700  0.86340660    -0.80260
O601        O  0.06315033  0.96956563  0.00193254    -0.83610
O602        O  0.02583422  0.93290484  0.00238356    -2.18320
O603        O  0.41119140  0.52125703  0.58189961    -0.67000
O604        O  0.41545967  0.97231692  0.54684051    -0.51570
C605        C  0.40074142  0.49667509  0.57323094     0.71770
O606        O  0.47795354  0.58343940  0.91872732    -0.59910
O607        O  0.02600592  0.57965095  0.95453874    -0.51890
C608        C  0.00195338  0.59449911  0.92845876     0.73570
O609        O  0.41563409  0.51390739  0.91394386    -0.71310
O610        O  0.41689801  0.96949223  0.95531725    -0.49980
C611        C  0.40418728  0.49050859  0.92540744     0.74950
O612        O  0.47600630  0.58646243  0.57809875    -0.66640
O613        O  0.02638529  0.58019914  0.54493269    -0.53830
C614        C  0.00121406  0.59600850  0.56979327     0.73330
Zr615      Zr  0.45826419  0.53886218  0.56017615     2.77540
O616        O  0.40838429  0.59148438  0.55240969    -0.97390
O617        O  0.45668943  0.54193536  0.63634056    -0.78210
Zr618      Zr  0.46092043  0.53483809  0.93575105     2.70070
O619        O  0.40790079  0.58498409  0.93367651    -0.79450
O620        O  0.46672072  0.53230590  0.85979279    -0.98540
Zr621      Zr  0.03929615  0.53046393  0.99962443     2.21500
Zr622      Zr  0.46493290  0.95802714  0.50108175     2.11130
O623        O  0.44016011  0.51903421  0.49844906    -2.47220
O624        O  0.47833769  0.55538936  0.49760855    -0.79250
O625        O  0.48123305  0.97803611  0.56409112    -0.71440
O626        O  0.02191045  0.51112659  0.93646494    -2.32400
O627        O  0.01907227  0.51478500  0.56319629    -2.28610
O628        O  0.48432805  0.97399402  0.93727340    -0.73200
H629        H  0.03374123  0.90816035  0.00315104     0.78800
H630        H  0.03084315  0.51891988  0.91227670     0.79880
H631        H  0.41541721  0.52706399  0.49788056     0.82110
H632        H  0.02698051  0.52379043  0.58722688     0.79720
H633        H  0.04422848  0.97386578  0.85572474     0.42750
H634        H  0.46935366  0.50850958  0.85228000     0.41720
H635        H  0.40858202  0.59829883  0.95913795     0.41400
H636        H  0.39068453  0.58420762  0.53962072     0.39330
H637        H  0.46648544  0.51768847  0.64532810     0.42460
H638        H  0.03747698  0.98157529  0.64727821     0.37250
H639        H  0.10393480  0.90074054  0.53845657     0.43370
H640        H  0.09105528  0.88288479  0.95996642     0.39780
H641        H  0.40024521  0.59841174  0.58142124     0.44700
H642        H  0.06095434  0.94271341  0.65038437     0.43420
H643        H  0.09745480  0.88795663  0.91249710     0.43560
H644        H  0.44364697  0.54662163  0.84956412     0.43920
C645        C  0.00583272  0.77215761  0.65878823     0.03470
C646        C  0.00102343  0.74490735  0.63764831    -0.12680
C647        C  0.00358103  0.71513123  0.65903552     0.00970
C648        C  0.00695360  0.71390566  0.70264684    -0.11210
C649        C  0.01019306  0.74149163  0.72558855     0.03460
C650        C  0.01145541  0.76969412  0.70230901    -0.10630
H651        H  0.99576787  0.74643484  0.60441255     0.09050
H652        H  0.00629885  0.69120805  0.71767026     0.06580
H653        H  0.01672700  0.79028013  0.71726508     0.06430
C654        C  0.00318746  0.77309783  0.83992740     0.03470
C655        C  0.00256849  0.74435577  0.86145821    -0.12680
C656        C  0.00619430  0.71407056  0.83979605     0.00970
C657        C  0.01165736  0.71247863  0.79624111    -0.11210
C658        C  0.01017398  0.74170992  0.77309052     0.03460
C659        C  0.00645270  0.77182004  0.79613558    -0.10630
H660        H  0.99878427  0.74579934  0.89512539     0.09050
H661        H  0.01689800  0.68798959  0.78123190     0.06580
H662        H  0.00585827  0.79488647  0.78094746     0.06430
C663        C  0.28223034  0.98889816  0.65921088     0.03470
C664        C  0.28373408  0.98508899  0.70259812    -0.12680
C665        C  0.25657117  0.98105042  0.72554049     0.00970
C666        C  0.22858871  0.97918834  0.70226947    -0.11210
C667        C  0.22594751  0.98499905  0.65865778     0.03460
C668        C  0.25281855  0.99071713  0.63771535    -0.10630
H669        H  0.30640621  0.98598173  0.71732467     0.09050
H670        H  0.20842224  0.97332112  0.71742352     0.06580
H671        H  0.25113081  0.99670314  0.60468758     0.06430
C672        C  0.28555493  0.98225353  0.83947953     0.03470
C673        C  0.25653364  0.98316522  0.86190690    -0.12680
C674        C  0.22755638  0.98309802  0.84057550     0.00970
C675        C  0.22747925  0.98243029  0.79662326    -0.11210
C676        C  0.25692356  0.98025583  0.77302091     0.03460
C677        C  0.28612925  0.97946104  0.79573792    -0.10630
H678        H  0.25617270  0.98478631  0.89581374     0.09050
H679        H  0.20386098  0.98418760  0.78180825     0.06580
H680        H  0.30989329  0.97698299  0.78053475     0.06430
C681        C  0.00221294  0.62622194  0.90748606     0.00180
C682        C  0.48274882  0.63754982  0.87098344    -0.11690
C683        C  0.48320686  0.66622830  0.84901432     0.02420
C684        C  0.00411960  0.68400631  0.86278977     0.00100
C685        C  0.02283120  0.67341175  0.89980507    -0.11630
C686        C  0.02173554  0.64528911  0.92246144     0.02300
H687        H  0.46705940  0.62392556  0.85927604     0.15280
H688        H  0.03854729  0.68716412  0.91110207     0.15280
C689        C  0.04039545  0.63743821  0.96136714     0.36940
C690        C  0.46092012  0.67756146  0.81332709     0.36840
N691        N  0.05534852  0.63137012  0.99253037    -0.43410
N692        N  0.44305618  0.68668520  0.78475738    -0.43400
C693        C  0.00114276  0.86277346  0.90786710     0.00180
C694        C  0.47652624  0.86598512  0.87703757    -0.11690
C695        C  0.47657309  0.83717647  0.85454073     0.02420
C696        C  0.00125804  0.80438745  0.86351654     0.00100
C697        C  0.02530261  0.80126012  0.89523086    -0.11630
C698        C  0.02558620  0.83015287  0.91713477     0.02300
H699        H  0.45763817  0.89113621  0.87004511     0.15280
H700        H  0.04435421  0.77622965  0.90231502     0.15280
C701        C  0.05097713  0.82576090  0.94921748     0.36940
C702        C  0.45089877  0.84192858  0.82274530     0.36840
N703        N  0.07131596  0.82227462  0.47491906    -0.43410
N704        N  0.43052051  0.84574747  0.79700722    -0.43400
C705        C  0.00157911  0.62712548  0.59117171     0.00180
C706        C  0.03151914  0.62568237  0.61178279    -0.11690
C707        C  0.03251428  0.65407110  0.63416847     0.02420
C708        C  0.00330123  0.68472678  0.63561258     0.00100
C709        C  0.47366454  0.68651853  0.61406286    -0.11630
C710        C  0.47250603  0.65795305  0.59211594     0.02300
H711        H  0.05397520  0.60210428  0.61102311     0.15280
H712        H  0.45134209  0.71019957  0.61468921     0.15280
C713        C  0.44165422  0.66127317  0.56967844     0.36940
C714        C  0.06395131  0.65135367  0.65484587     0.36840
N715        N  0.41695023  0.66405412  0.55157124    -0.43410
N716        N  0.08911985  0.64920435  0.67144271    -0.43400
C717        C  0.99977038  0.86536100  0.59626603     0.00180
C718        C  0.01709672  0.83362335  0.57687206    -0.11690
C719        C  0.01975371  0.80297491  0.59648898     0.02420
C720        C  0.00391784  0.80390597  0.63609477     0.00100
C721        C  0.48599692  0.83611732  0.65496999    -0.11630
C722        C  0.48424032  0.86663784  0.63566766     0.02300
H723        H  0.02935799  0.83279585  0.54668549     0.15280
H724        H  0.47330882  0.83752456  0.68498687     0.15280
C725        C  0.46661140  0.89894693  0.65687474     0.36940
C726        C  0.04025606  0.77121138  0.57588633     0.36840
N727        N  0.45262394  0.92485659  0.67389092    -0.43410
N728        N  0.05655741  0.74587130  0.55903872    -0.43400
C729        C  0.37403036  0.98762432  0.90314635     0.00180
C730        C  0.35481594  0.51412364  0.87617723    -0.11690
C731        C  0.32591918  0.51288740  0.85541149     0.02420
C732        C  0.31547201  0.98486804  0.86155295     0.00100
C733        C  0.33429039  0.95844114  0.88827551    -0.11630
C734        C  0.36345744  0.95923611  0.90866647     0.02300
H735        H  0.36211168  0.53612716  0.87145952     0.15280
H736        H  0.32647507  0.93669365  0.89257841     0.15280
C737        C  0.38211798  0.92988975  0.93402825     0.36940
C738        C  0.30686414  0.54107234  0.82865599     0.36840
N739        N  0.39693991  0.90627721  0.95423929    -0.43410
N740        N  0.29153545  0.56359768  0.80717470    -0.43400
C741        C  0.19653988  0.98504152  0.86426086     0.00180
C742        C  0.16925861  0.51671293  0.86790994    -0.11690
C743        C  0.13907323  0.51950884  0.88930916     0.02420
C744        C  0.13581615  0.99005076  0.90720175     0.00100
C745        C  0.16327260  0.95833741  0.90338256    -0.11630
C746        C  0.19355891  0.95569555  0.88238343     0.02300
H747        H  0.17149479  0.53925084  0.85367105     0.15280
H748        H  0.16111277  0.93555760  0.91701734     0.15280
C749        C  0.22104314  0.92256854  0.87922937     0.36940
C750        C  0.11135074  0.55253318  0.89050920     0.36840
N751        N  0.24306949  0.89600944  0.87672711    -0.43410
N752        N  0.08926141  0.57910561  0.89109894    -0.43400
C753        C  0.36985170  0.99570307  0.59533929     0.00180
C754        C  0.36722121  0.96355779  0.60187170    -0.11690
C755        C  0.33869471  0.96095343  0.62224210     0.02420
C756        C  0.31201590  0.99084498  0.63632458     0.00100
C757        C  0.31426531  0.52290553  0.62992381    -0.11630
C758        C  0.34279790  0.52566772  0.60962233     0.02300
H759        H  0.38771163  0.94026172  0.59148294     0.15280
H760        H  0.29360921  0.54585347  0.64090181     0.15280
C761        C  0.34265492  0.55972510  0.60300185     0.36940
C762        C  0.33739450  0.92735947  0.62864970     0.36840
N763        N  0.34160978  0.58743000  0.59821089    -0.43410
N764        N  0.33635059  0.90044903  0.63381057    -0.43400
C765        C  0.19425789  0.98687142  0.63569076     0.00180
C766        C  0.16206989  0.00309388  0.65536801    -0.11630
C767        C  0.13162730  0.00551208  0.63543090     0.02420
C768        C  0.13279247  0.99294948  0.59431604     0.00100
C769        C  0.16448256  0.97709578  0.57421181    -0.11630
C770        C  0.19513828  0.97327693  0.59464631     0.02300
H771        H  0.16053557  0.01404933  0.68648654     0.15280
H772        H  0.16530274  0.96660565  0.54289821     0.15280
C773        C  0.22684089  0.95374569  0.57325940     0.36940
C774        C  0.09947412  0.02071010  0.65782621     0.36840
N775        N  0.25212913  0.93822162  0.55580413    -0.43410
N776        N  0.07371539  0.53263516  0.67583049    -0.43400
O777        O  0.58934020  0.47109754  0.08416636    -0.74950
O778        O  0.58899105  0.01652997  0.04462715    -0.53860
C779        C  0.60159961  0.49372181  0.07297214     0.78770
O780        O  0.52652092  0.40344748  0.42050561    -0.59550
O781        O  0.97698077  0.40881025  0.45520377    -0.52580
C782        C  0.00148357  0.39375862  0.42922462     0.70790
O783        O  0.59368183  0.46643471  0.42122963    -0.74110
O784        O  0.58898255  0.01655254  0.45383338    -0.54680
C785        C  0.60405548  0.49122331  0.42882977     0.76790
O786        O  0.52277954  0.40813803  0.08615276    -0.59260
O787        O  0.97702269  0.40923930  0.04684117    -0.52380
C788        C  0.99959300  0.39648559  0.07530565     0.73380
Zr789      Zr  0.54197012  0.45393596  0.06455628     2.54710
O790        O  0.59288119  0.40160935  0.06614181    -0.79820
O791        O  0.53815814  0.45822874  0.14065419    -0.93240
Zr792      Zr  0.54509291  0.45032774  0.43966419     2.64680
O793        O  0.59657718  0.39847608  0.44053011    -0.98190
O794        O  0.54402319  0.45108699  0.36340660    -0.80260
O795        O  0.56315032  0.46956564  0.50193254    -0.83610
O796        O  0.52583421  0.43290485  0.50238357    -2.18320
O797        O  0.91119140  0.02125701  0.08189960    -0.67000
O798        O  0.91545970  0.47231690  0.04684052    -0.51570
C799        C  0.90074143  0.99667507  0.07323094     0.71770
O800        O  0.97795354  0.08343941  0.41872733    -0.59910
O801        O  0.52600592  0.07965095  0.45453874    -0.51890
C802        C  0.50195338  0.09449911  0.42845877     0.73570
O803        O  0.91563407  0.01390741  0.41394386    -0.71310
O804        O  0.91689800  0.46949225  0.45531726    -0.49980
C805        C  0.90418726  0.99050862  0.42540744     0.74950
O806        O  0.97600631  0.08646242  0.07809876    -0.66640
O807        O  0.52638528  0.08019913  0.04493269    -0.53830
C808        C  0.50121406  0.09600849  0.06979328     0.73330
Zr809      Zr  0.95826419  0.03886217  0.06017615     2.77540
O810        O  0.90838429  0.09148437  0.05240971    -0.97390
O811        O  0.95668944  0.04193534  0.13634056    -0.78210
Zr812      Zr  0.96092042  0.03483811  0.43575106     2.70070
O813        O  0.90790079  0.08498411  0.43367652    -0.79450
O814        O  0.96672071  0.03230592  0.35979279    -0.98540
Zr815      Zr  0.53929614  0.03046394  0.49962444     2.21500
Zr816      Zr  0.96493291  0.45802712  0.00108175     2.11130
O817        O  0.94016011  0.01903420  0.99844906    -2.47220
O818        O  0.97833769  0.05538935  0.99760855    -0.79250
O819        O  0.98123307  0.47803609  0.06409111    -0.71440
O820        O  0.52191044  0.01112660  0.43646494    -2.32400
O821        O  0.51907227  0.01478499  0.06319629    -2.28610
O822        O  0.98432804  0.47399403  0.43727340    -0.73200
H823        H  0.53374122  0.40816036  0.50315105     0.78800
H824        H  0.53084314  0.01891988  0.41227671     0.79880
H825        H  0.91541721  0.02706398  0.99788055     0.82110
H826        H  0.52698051  0.02379042  0.08722689     0.79720
H827        H  0.54422844  0.47386579  0.35572474     0.42750
H828        H  0.96935364  0.00850960  0.35228000     0.41720
H829        H  0.90858202  0.09829885  0.45913796     0.41400
H830        H  0.89068454  0.08420761  0.03962070     0.39330
H831        H  0.96648544  0.01768844  0.14532809     0.42460
H832        H  0.53747698  0.48157528  0.14727820     0.37250
H833        H  0.60393483  0.40074054  0.03845657     0.43370
H834        H  0.59105526  0.38288479  0.45996644     0.39780
H835        H  0.90024519  0.09841170  0.08142126     0.44700
H836        H  0.56095435  0.44271341  0.15038437     0.43420
H837        H  0.59745480  0.38795663  0.41249712     0.43560
H838        H  0.94364696  0.04662166  0.34956413     0.43920
C839        C  0.50583273  0.27215761  0.15878822     0.03470
C840        C  0.50102347  0.24490733  0.13764830    -0.12680
C841        C  0.50358105  0.21513123  0.15903552     0.00970
C842        C  0.50695360  0.21390567  0.20264684    -0.11210
C843        C  0.51019304  0.24149163  0.22558855     0.03460
C844        C  0.51145539  0.26969413  0.20230900    -0.10630
H845        H  0.49576794  0.24643482  0.10441253     0.09050
H846        H  0.50629884  0.19120806  0.21767026     0.06580
H847        H  0.51672696  0.29028016  0.21726508     0.06430
C848        C  0.50318743  0.27309784  0.33992740     0.03470
C849        C  0.50256847  0.24435579  0.36145821    -0.12680
C850        C  0.50619427  0.21407058  0.33979605     0.00970
C851        C  0.51165733  0.21247865  0.29624111    -0.11210
C852        C  0.51017395  0.24170993  0.27309052     0.03460
C853        C  0.50645268  0.27182005  0.29613558    -0.10630
H854        H  0.49878425  0.24579935  0.39512539     0.09050
H855        H  0.51689796  0.18798960  0.28123190     0.06580
H856        H  0.50585825  0.29488648  0.28094746     0.06430
C857        C  0.78223037  0.48889811  0.15921088     0.03470
C858        C  0.78373412  0.48508891  0.20259812    -0.12680
C859        C  0.75657119  0.48105038  0.22554048     0.00970
C860        C  0.72858871  0.47918834  0.20226946    -0.11210
C861        C  0.72594751  0.48499906  0.15865777     0.03460
C862        C  0.75281857  0.49071712  0.13771535    -0.10630
H863        H  0.80640627  0.48598158  0.21732465     0.09050
H864        H  0.70842223  0.47332114  0.21742350     0.06580
H865        H  0.75113082  0.49670315  0.10468758     0.06430
C866        C  0.78555492  0.48225355  0.33947954     0.03470
C867        C  0.75653364  0.48316522  0.36190690    -0.12680
C868        C  0.72755639  0.48309799  0.34057550     0.00970
C869        C  0.72747927  0.48243023  0.29662326    -0.11210
C870        C  0.75692357  0.48025580  0.27302091     0.03460
C871        C  0.78612924  0.47946105  0.29573792    -0.10630
H872        H  0.75617269  0.48478632  0.39581374     0.09050
H873        H  0.70386101  0.48418751  0.28180825     0.06580
H874        H  0.80989328  0.47698304  0.28053477     0.06430
C875        C  0.50221293  0.12622195  0.40748606     0.00180
C876        C  0.98274881  0.13754983  0.37098345    -0.11690
C877        C  0.98320684  0.16622832  0.34901433     0.02420
C878        C  0.50411958  0.18400632  0.36278977     0.00100
C879        C  0.52283119  0.17341176  0.39980506    -0.11630
C880        C  0.52173554  0.14528911  0.42246143     0.02300
H881        H  0.96705939  0.12392557  0.35927606     0.15280
H882        H  0.53854729  0.18716412  0.41110206     0.15280
C883        C  0.54039546  0.13743821  0.46136712     0.36940
C884        C  0.96092010  0.17756147  0.31332710     0.36840
N885        N  0.55534854  0.13137011  0.49253035    -0.43410
N886        N  0.94305615  0.18668522  0.28475740    -0.43400
C887        C  0.50114274  0.36277347  0.40786711     0.00180
C888        C  0.97652623  0.36598513  0.37703757    -0.11690
C889        C  0.97657308  0.33717649  0.35454072     0.02420
C890        C  0.50125802  0.30438746  0.36351654     0.00100
C891        C  0.52530259  0.30126013  0.39523087    -0.11630
C892        C  0.52558618  0.33015288  0.41713478     0.02300
H893        H  0.95763816  0.39113623  0.37004510     0.15280
H894        H  0.54435418  0.27622966  0.40231503     0.15280
C895        C  0.55097710  0.32576090  0.44921749     0.36940
C896        C  0.95089876  0.34192859  0.32274528     0.36840
N897        N  0.57131601  0.32227461  0.97491898    -0.43410
N898        N  0.93052051  0.34574749  0.29700720    -0.43400
C899        C  0.50157911  0.12712547  0.09117172     0.00180
C900        C  0.53151914  0.12568235  0.11178281    -0.11690
C901        C  0.53251428  0.15407108  0.13416849     0.02420
C902        C  0.50330124  0.18472677  0.13561258     0.00100
C903        C  0.97366456  0.18651852  0.11406284    -0.11630
C904        C  0.97250604  0.15795304  0.09211594     0.02300
H905        H  0.55397520  0.10210426  0.11102314     0.15280
H906        H  0.95134212  0.21019957  0.11468919     0.15280
C907        C  0.94165424  0.16127317  0.06967843     0.36940
C908        C  0.56395131  0.15135365  0.15484590     0.36840
N909        N  0.91695025  0.16405413  0.05157122    -0.43410
N910        N  0.58911985  0.14920432  0.17144275    -0.43400
C911        C  0.49977041  0.36536098  0.09626601     0.00180
C912        C  0.51709683  0.33362332  0.07687210    -0.11690
C913        C  0.51975381  0.30297488  0.09648902     0.02420
C914        C  0.50391786  0.30390596  0.13609476     0.00100
C915        C  0.98599686  0.33611731  0.15496992    -0.11630
C916        C  0.98424026  0.36663783  0.13566758     0.02300
H917        H  0.52935816  0.33279581  0.04668557     0.15280
H918        H  0.97330869  0.33752456  0.18498675     0.15280
C919        C  0.96661124  0.39894693  0.15687460     0.36940
C920        C  0.54025621  0.27121135  0.07588642     0.36840
N921        N  0.95262369  0.42485660  0.17389073    -0.43410
N922        N  0.55655761  0.24587126  0.05903886    -0.43400
C923        C  0.87403035  0.48762434  0.40314636     0.00180
C924        C  0.85481589  0.01412370  0.37617728    -0.11690
C925        C  0.82591912  0.01288747  0.35541155     0.02420
C926        C  0.81547200  0.48486807  0.36155296     0.00100
C927        C  0.83429038  0.45844116  0.38827551    -0.11630
C928        C  0.86345744  0.45923613  0.40866647     0.02300
H929        H  0.86211161  0.03612725  0.37145962     0.15280
H930        H  0.82647507  0.43669366  0.39257840     0.15280
C931        C  0.88211798  0.42988976  0.43402823     0.36940
C932        C  0.80686405  0.04107243  0.32865610     0.36840
N933        N  0.89693992  0.40627721  0.45423926    -0.43410
N934        N  0.79153533  0.06359780  0.30717486    -0.43400
C935        C  0.69653989  0.48504149  0.36426085     0.00180
C936        C  0.66925861  0.01671291  0.36790995    -0.11690
C937        C  0.63907324  0.01950883  0.38930917     0.02420
C938        C  0.63581615  0.49005074  0.40720174     0.00100
C939        C  0.66327258  0.45833739  0.40338251    -0.11630
C940        C  0.69355889  0.45569552  0.38238338     0.02300
H941        H  0.67149481  0.03925082  0.35367107     0.15280
H942        H  0.66111274  0.43555758  0.41701726     0.15280
C943        C  0.72104310  0.42256850  0.37922927     0.36940
C944        C  0.61135075  0.05253317  0.39050922     0.36840
N945        N  0.74306943  0.39600939  0.37672698    -0.43410
N946        N  0.58926143  0.07910560  0.39109897    -0.43400
C947        C  0.86985173  0.49570304  0.09533929     0.00180
C948        C  0.86722126  0.46355775  0.10187174    -0.11690
C949        C  0.83869477  0.46095338  0.12224215     0.02420
C950        C  0.81201594  0.49084493  0.13632458     0.00100
C951        C  0.81426530  0.02290549  0.12992376    -0.11630
C952        C  0.84279789  0.02566769  0.10962228     0.02300
H953        H  0.88771170  0.44026168  0.09148301     0.15280
H954        H  0.79360919  0.04585343  0.14090172     0.15280
C955        C  0.84265489  0.05972507  0.10300175     0.36940
C956        C  0.83739458  0.42735942  0.12864978     0.36840
N957        N  0.84160973  0.08742998  0.09821075    -0.43410
N958        N  0.83635068  0.40044897  0.13381067    -0.43400
C959        C  0.69425790  0.48687144  0.13569075     0.00180
C960        C  0.66206989  0.50309390  0.15536800    -0.11630
C961        C  0.63162730  0.50551209  0.13543089     0.02420
C962        C  0.63279248  0.49294949  0.09431603     0.00100
C963        C  0.66448257  0.47709580  0.07421180    -0.11630
C964        C  0.69513829  0.47327695  0.09464630     0.02300
H965        H  0.66053557  0.51404935  0.18648653     0.15280
H966        H  0.66530275  0.46660567  0.04289820     0.15280
C967        C  0.72684089  0.45374572  0.07325938     0.36940
C968        C  0.59947413  0.52071011  0.15782620     0.36840
N969        N  0.75212914  0.43822165  0.05580411    -0.43410
N970        N  0.57371537  0.03263522  0.17583047    -0.43400
O971        O  0.58934020  0.47109753  0.58416636    -0.74950
O972        O  0.58899105  0.01652997  0.54462715    -0.53860
C973        C  0.60159962  0.49372179  0.57297214     0.78770
O974        O  0.52652093  0.40344748  0.92050561    -0.59550
O975        O  0.97698078  0.40881024  0.95520377    -0.52580
C976        C  0.00148358  0.39375862  0.92922462     0.70790
O977        O  0.59368184  0.46643472  0.92122962    -0.74110
O978        O  0.58898255  0.01655254  0.95383338    -0.54680
C979        C  0.60405548  0.49122332  0.92882977     0.76790
O980        O  0.52277954  0.40813803  0.58615276    -0.59260
O981        O  0.97702269  0.40923930  0.54684117    -0.52380
C982        C  0.99959299  0.39648560  0.57530566     0.73380
Zr983      Zr  0.54197012  0.45393596  0.56455629     2.54710
O984        O  0.59288118  0.40160934  0.56614181    -0.79820
O985        O  0.53815814  0.45822874  0.64065419    -0.93240
Zr986      Zr  0.54509292  0.45032774  0.93966419     2.64680
O987        O  0.59657719  0.39847608  0.94053011    -0.98190
O988        O  0.54402320  0.45108698  0.86340660    -0.80260
O989        O  0.56315033  0.46956564  0.00193254    -0.83610
O990        O  0.52583422  0.43290485  0.00238357    -2.18320
O991        O  0.91119138  0.02125704  0.58189960    -0.67000
O992        O  0.91545969  0.47231691  0.54684052    -0.51570
C993        C  0.90074141  0.99667511  0.57323093     0.71770
O994        O  0.97795355  0.08343940  0.91872733    -0.59910
O995        O  0.52600593  0.07965094  0.95453874    -0.51890
C996        C  0.50195338  0.09449910  0.92845877     0.73570
O997        O  0.91563409  0.01390739  0.91394386    -0.71310
O998        O  0.91689801  0.46949224  0.95531725    -0.49980
C999        C  0.90418728  0.99050860  0.92540744     0.74950
O1000       O  0.97600630  0.08646244  0.57809876    -0.66640
O1001       O  0.52638528  0.08019914  0.54493269    -0.53830
C1002       C  0.50121406  0.09600851  0.56979327     0.73330
Zr1003     Zr  0.95826417  0.03886219  0.56017615     2.77540
O1004       O  0.90838428  0.09148440  0.55240968    -0.97390
O1005       O  0.95668941  0.04193538  0.63634055    -0.78210
Zr1006     Zr  0.96092043  0.03483809  0.93575106     2.70070
O1007       O  0.90790080  0.08498409  0.93367652    -0.79450
O1008       O  0.96672071  0.03230591  0.85979279    -0.98540
Zr1009     Zr  0.53929615  0.03046393  0.99962444     2.21500
Zr1010     Zr  0.96493291  0.45802713  0.50108175     2.11130
O1011       O  0.94016010  0.01903422  0.49844906    -2.47220
O1012       O  0.97833768  0.05538937  0.49760854    -0.79250
O1013       O  0.98123307  0.47803609  0.56409112    -0.71440
O1014       O  0.52191045  0.01112659  0.93646494    -2.32400
O1015       O  0.51907226  0.01478501  0.56319629    -2.28610
O1016       O  0.98432804  0.47399403  0.93727340    -0.73200
H1017       H  0.53374123  0.40816036  0.00315104     0.78800
H1018       H  0.53084315  0.01891988  0.91227671     0.79880
H1019       H  0.91541720  0.02706401  0.49788055     0.82110
H1020       H  0.52698049  0.02379044  0.58722688     0.79720
H1021       H  0.54422845  0.47386579  0.85572473     0.42750
H1022       H  0.96935366  0.00850958  0.85228001     0.41720
H1023       H  0.90858203  0.09829883  0.95913797     0.41400
H1024       H  0.89068452  0.08420764  0.53962071     0.39330
H1025       H  0.96648543  0.01768848  0.64532809     0.42460
H1026       H  0.53747698  0.48157528  0.64727820     0.37250
H1027       H  0.60393482  0.40074053  0.53845657     0.43370
H1028       H  0.59105527  0.38288480  0.95996644     0.39780
H1029       H  0.90024520  0.09841176  0.58142123     0.44700
H1030       H  0.56095435  0.44271340  0.65038437     0.43420
H1031       H  0.59745481  0.38795663  0.91249712     0.43560
H1032       H  0.94364696  0.04662163  0.84956413     0.43920
C1033       C  0.50583274  0.27215760  0.65878823     0.03470
C1034       C  0.50102348  0.24490733  0.63764831    -0.12680
C1035       C  0.50358106  0.21513122  0.65903553     0.00970
C1036       C  0.50695361  0.21390566  0.70264685    -0.11210
C1037       C  0.51019306  0.24149163  0.72558856     0.03460
C1038       C  0.51145540  0.26969413  0.70230902    -0.10630
H1039       H  0.49576796  0.24643482  0.60441254     0.09050
H1040       H  0.50629885  0.19120806  0.71767027     0.06580
H1041       H  0.51672697  0.29028015  0.71726509     0.06430
C1042       C  0.50318745  0.27309783  0.83992742     0.03470
C1043       C  0.50256848  0.24435577  0.86145822    -0.12680
C1044       C  0.50619429  0.21407057  0.83979606     0.00970
C1045       C  0.51165735  0.21247864  0.79624112    -0.11210
C1046       C  0.51017397  0.24170992  0.77309053     0.03460
C1047       C  0.50645269  0.27182004  0.79613560    -0.10630
H1048       H  0.49878426  0.24579934  0.89512540     0.09050
H1049       H  0.51689799  0.18798959  0.78123191     0.06580
H1050       H  0.50585826  0.29488648  0.78094747     0.06430
C1051       C  0.78223035  0.48889814  0.65921089     0.03470
C1052       C  0.78373409  0.48508898  0.70259813    -0.12680
C1053       C  0.75657118  0.48105039  0.72554049     0.00970
C1054       C  0.72858873  0.47918830  0.70226947    -0.11210
C1055       C  0.72594753  0.48499901  0.65865777     0.03460
C1056       C  0.75281857  0.49071710  0.63771534    -0.10630
H1057       H  0.80640621  0.48598173  0.71732468     0.09050
H1058       H  0.70842227  0.47332107  0.71742351     0.06580
H1059       H  0.75113083  0.49670311  0.60468758     0.06430
C1060       C  0.78555493  0.48225352  0.83947953     0.03470
C1061       C  0.75653364  0.48316521  0.86190689    -0.12680
C1062       C  0.72755638  0.48309802  0.84057549     0.00970
C1063       C  0.72747925  0.48243028  0.79662325    -0.11210
C1064       C  0.75692357  0.48025581  0.77302091     0.03460
C1065       C  0.78612926  0.47946100  0.79573791    -0.10630
H1066       H  0.75617270  0.48478631  0.89581374     0.09050
H1067       H  0.70386098  0.48418760  0.78180824     0.06580
H1068       H  0.80989331  0.47698294  0.78053475     0.06430
C1069       C  0.50221294  0.12622194  0.90748607     0.00180
C1070       C  0.98274883  0.13754982  0.87098344    -0.11690
C1071       C  0.98320686  0.16622830  0.84901433     0.02420
C1072       C  0.50411960  0.18400631  0.86278978     0.00100
C1073       C  0.52283119  0.17341175  0.89980507    -0.11630
C1074       C  0.52173555  0.14528910  0.92246144     0.02300
H1075       H  0.96705941  0.12392555  0.85927605     0.15280
H1076       H  0.53854729  0.18716411  0.91110207     0.15280
C1077       C  0.54039546  0.13743820  0.96136714     0.36940
C1078       C  0.96092013  0.17756145  0.81332709     0.36840
N1079       N  0.55534853  0.13137011  0.99253037    -0.43410
N1080       N  0.94305619  0.18668519  0.78475738    -0.43400
C1081       C  0.50114276  0.36277346  0.90786711     0.00180
C1082       C  0.97652623  0.36598512  0.87703758    -0.11690
C1083       C  0.97657308  0.33717647  0.85454074     0.02420
C1084       C  0.50125803  0.30438745  0.86351655     0.00100
C1085       C  0.52530260  0.30126012  0.89523087    -0.11630
C1086       C  0.52558620  0.33015287  0.91713478     0.02300
H1087       H  0.95763816  0.39113622  0.87004512     0.15280
H1088       H  0.54435420  0.27622965  0.90231504     0.15280
C1089       C  0.55097712  0.32576090  0.94921749     0.36940
C1090       C  0.95089875  0.34192858  0.82274531     0.36840
N1091       N  0.57131599  0.32227461  0.47491899    -0.43410
N1092       N  0.93052049  0.34574747  0.79700724    -0.43400
C1093       C  0.50157912  0.12712548  0.59117172     0.00180
C1094       C  0.53151915  0.12568235  0.61178281    -0.11690
C1095       C  0.53251429  0.15407108  0.63416850     0.02420
C1096       C  0.50330126  0.18472677  0.63561259     0.00100
C1097       C  0.97366457  0.18651853  0.61406285    -0.11630
C1098       C  0.97250604  0.15795306  0.59211593     0.02300
H1099       H  0.55397520  0.10210426  0.61102315     0.15280
H1100       H  0.95134213  0.21019959  0.61468919     0.15280
C1101       C  0.94165425  0.16127319  0.56967842     0.36940
C1102       C  0.56395132  0.15135364  0.65484591     0.36840
N1103       N  0.91695025  0.16405415  0.55157120    -0.43410
N1104       N  0.58911985  0.14920431  0.67144277    -0.43400
C1105       C  0.49977041  0.36536098  0.59626602     0.00180
C1106       C  0.51709683  0.33362332  0.57687211    -0.11690
C1107       C  0.51975381  0.30297488  0.59648903     0.02420
C1108       C  0.50391787  0.30390596  0.63609478     0.00100
C1109       C  0.98599688  0.33611731  0.65496995    -0.11630
C1110       C  0.98424027  0.36663783  0.63566760     0.02300
H1111       H  0.52935815  0.33279581  0.54668557     0.15280
H1112       H  0.97330873  0.33752455  0.68498679     0.15280
C1113       C  0.96661127  0.39894693  0.65687463     0.36940
C1114       C  0.54025622  0.27121135  0.57588643     0.36840
N1115       N  0.95262373  0.42485659  0.67389076    -0.43410
N1116       N  0.55655762  0.24587127  0.55903887    -0.43400
C1117       C  0.87403036  0.48762432  0.90314635     0.00180
C1118       C  0.85481593  0.01412366  0.87617725    -0.11690
C1119       C  0.82591916  0.01288743  0.85541152     0.02420
C1120       C  0.81547202  0.48486803  0.86155294     0.00100
C1121       C  0.83429039  0.45844114  0.88827552    -0.11630
C1122       C  0.86345744  0.45923611  0.90866648     0.02300
H1123       H  0.86211166  0.03612720  0.87145957     0.15280
H1124       H  0.82647507  0.43669364  0.89257843     0.15280
C1125       C  0.88211797  0.42988975  0.93402828     0.36940
C1126       C  0.80686411  0.04107238  0.82865604     0.36840
N1127       N  0.89693990  0.40627722  0.95423933    -0.43410
N1128       N  0.79153540  0.06359774  0.80717478    -0.43400
C1129       C  0.69653988  0.48504152  0.86426085     0.00180
C1130       C  0.66925860  0.01671292  0.86790993    -0.11690
C1131       C  0.63907323  0.01950884  0.88930915     0.02420
C1132       C  0.63581615  0.49005076  0.90720174     0.00100
C1133       C  0.66327259  0.45833741  0.90338253    -0.11630
C1134       C  0.69355889  0.45569555  0.88238340     0.02300
H1135       H  0.67149478  0.03925083  0.85367102     0.15280
H1136       H  0.66111275  0.43555760  0.91701729     0.15280
C1137       C  0.72104312  0.42256853  0.87922931     0.36940
C1138       C  0.61135073  0.05253316  0.89050918     0.36840
N1139       N  0.74306946  0.39600944  0.87672704    -0.43410
N1140       N  0.58926139  0.07910559  0.89109890    -0.43400
C1141       C  0.86985172  0.49570306  0.59533930     0.00180
C1142       C  0.86722123  0.46355777  0.60187172    -0.11690
C1143       C  0.83869473  0.46095341  0.62224212     0.02420
C1144       C  0.81201592  0.49084497  0.63632459     0.00100
C1145       C  0.81426529  0.02290555  0.62992380    -0.11630
C1146       C  0.84279788  0.02566774  0.60962233     0.02300
H1147       H  0.88771165  0.44026170  0.59148296     0.15280
H1148       H  0.79360920  0.04585348  0.64090180     0.15280
C1149       C  0.84265491  0.05972511  0.60300184     0.36940
C1150       C  0.83739453  0.42735945  0.62864972     0.36840
N1151       N  0.84160977  0.08743002  0.59821087    -0.43410
N1152       N  0.83635062  0.40044901  0.63381060    -0.43400
C1153       C  0.69425791  0.48687138  0.63569076     0.00180
C1154       C  0.66206991  0.50309384  0.65536801    -0.11630
C1155       C  0.63162732  0.50551205  0.63543089     0.02420
C1156       C  0.63279249  0.49294946  0.59431603     0.00100
C1157       C  0.66448258  0.47709577  0.57421180    -0.11630
C1158       C  0.69513830  0.47327690  0.59464630     0.02300
H1159       H  0.66053560  0.51404928  0.68648654     0.15280
H1160       H  0.66530275  0.46660564  0.54289819     0.15280
C1161       C  0.72684090  0.45374567  0.57325938     0.36940
C1162       C  0.59947414  0.52071006  0.65782622     0.36840
N1163       N  0.75212915  0.43822160  0.55580411    -0.43410
N1164       N  0.57371536  0.03263521  0.67583048    -0.43400
O1165       O  0.58934020  0.97109753  0.08416636    -0.74950
O1166       O  0.58899105  0.51652997  0.04462714    -0.53860
C1167       C  0.60159962  0.99372180  0.07297214     0.78770
O1168       O  0.52652092  0.90344749  0.42050562    -0.59550
O1169       O  0.97698076  0.90881025  0.45520378    -0.52580
C1170       C  0.00148357  0.89375863  0.42922463     0.70790
O1171       O  0.59368183  0.96643472  0.42122963    -0.74110
O1172       O  0.58898256  0.51655253  0.45383338    -0.54680
C1173       C  0.60405547  0.99122332  0.42882977     0.76790
O1174       O  0.52277955  0.90813802  0.08615275    -0.59260
O1175       O  0.97702269  0.90923930  0.04684117    -0.52380
C1176       C  0.99959300  0.89648558  0.07530565     0.73380
Zr1177     Zr  0.54197013  0.95393595  0.06455628     2.54710
O1178       O  0.59288119  0.90160934  0.06614181    -0.79820
O1179       O  0.53815814  0.95822873  0.14065419    -0.93240
Zr1180     Zr  0.54509291  0.95032775  0.43966420     2.64680
O1181       O  0.59657717  0.89847609  0.44053012    -0.98190
O1182       O  0.54402318  0.95108699  0.36340661    -0.80260
O1183       O  0.56315031  0.96956565  0.50193255    -0.83610
O1184       O  0.52583420  0.93290486  0.50238357    -2.18320
O1185       O  0.91119140  0.52125702  0.08189960    -0.67000
O1186       O  0.91545970  0.97231689  0.04684052    -0.51570
C1187       C  0.90074143  0.49667508  0.07323094     0.71770
O1188       O  0.97795354  0.58343941  0.41872734    -0.59910
O1189       O  0.52600593  0.57965095  0.45453874    -0.51890
C1190       C  0.50195338  0.59449911  0.42845878     0.73570
O1191       O  0.91563408  0.51390740  0.41394386    -0.71310
O1192       O  0.91689799  0.96949226  0.45531725    -0.49980
C1193       C  0.90418727  0.49050861  0.42540744     0.74950
O1194       O  0.97600631  0.58646242  0.07809876    -0.66640
O1195       O  0.52638529  0.58019913  0.04493269    -0.53830
C1196       C  0.50121407  0.59600849  0.06979328     0.73330
Zr1197     Zr  0.95826419  0.53886218  0.06017615     2.77540
O1198       O  0.90838429  0.59148438  0.05240968    -0.97390
O1199       O  0.95668942  0.54193537  0.13634055    -0.78210
Zr1200     Zr  0.96092043  0.53483810  0.43575106     2.70070
O1201       O  0.90790080  0.58498409  0.43367652    -0.79450
O1202       O  0.96672072  0.53230591  0.35979279    -0.98540
Zr1203     Zr  0.53929615  0.53046393  0.49962444     2.21500
Zr1204     Zr  0.96493292  0.95802712  0.00108175     2.11130
O1205       O  0.94016011  0.51903421  0.99844906    -2.47220
O1206       O  0.97833768  0.55538936  0.99760854    -0.79250
O1207       O  0.98123308  0.97803608  0.06409111    -0.71440
O1208       O  0.52191045  0.51112659  0.43646495    -2.32400
O1209       O  0.51907227  0.51478500  0.06319628    -2.28610
O1210       O  0.98432803  0.97399404  0.43727340    -0.73200
H1211       H  0.53374121  0.90816037  0.50315105     0.78800
H1212       H  0.53084315  0.51891988  0.41227671     0.79880
H1213       H  0.91541721  0.52706399  0.99788055     0.82110
H1214       H  0.52698051  0.52379043  0.08722688     0.79720
H1215       H  0.54422844  0.97386579  0.35572474     0.42750
H1216       H  0.96935365  0.50850959  0.35228001     0.41720
H1217       H  0.90858202  0.59829884  0.45913797     0.41400
H1218       H  0.89068454  0.58420762  0.03962069     0.39330
H1219       H  0.96648544  0.51768847  0.14532809     0.42460
H1220       H  0.53747699  0.98157527  0.14727820     0.37250
H1221       H  0.60393482  0.90074052  0.03845656     0.43370
H1222       H  0.59105525  0.88288480  0.45996643     0.39780
H1223       H  0.90024519  0.59841173  0.08142123     0.44700
H1224       H  0.56095435  0.94271339  0.15038437     0.43420
H1225       H  0.59745480  0.88795664  0.41249712     0.43560
H1226       H  0.94364697  0.54662165  0.34956413     0.43920
C1227       C  0.50583274  0.77215760  0.15878823     0.03470
C1228       C  0.50102350  0.74490732  0.13764831    -0.12680
C1229       C  0.50358110  0.71513121  0.15903553     0.00970
C1230       C  0.50695365  0.71390565  0.20264685    -0.11210
C1231       C  0.51019307  0.74149163  0.22558856     0.03460
C1232       C  0.51145538  0.76969414  0.20230902    -0.10630
H1233       H  0.49576799  0.74643480  0.10441254     0.09050
H1234       H  0.50629892  0.69120803  0.21767026     0.06580
H1235       H  0.51672692  0.79028018  0.21726509     0.06430
C1236       C  0.50318746  0.77309783  0.33992742     0.03470
C1237       C  0.50256847  0.74435579  0.36145823    -0.12680
C1238       C  0.50619427  0.71407058  0.33979607     0.00970
C1239       C  0.51165732  0.71247865  0.29624113    -0.11210
C1240       C  0.51017397  0.74170992  0.27309054     0.03460
C1241       C  0.50645272  0.77182003  0.29613560    -0.10630
H1242       H  0.49878425  0.74579935  0.39512540     0.09050
H1243       H  0.51689793  0.68798960  0.28123192     0.06580
H1244       H  0.50585833  0.79488646  0.28094748     0.06430
C1245       C  0.78223038  0.98889810  0.15921088     0.03470
C1246       C  0.78373413  0.98508889  0.20259812    -0.12680
C1247       C  0.75657119  0.98105037  0.22554049     0.00970
C1248       C  0.72858871  0.97918833  0.20226947    -0.11210
C1249       C  0.72594752  0.98499904  0.15865777     0.03460
C1250       C  0.75281857  0.99071710  0.13771535    -0.10630
H1251       H  0.80640628  0.98598157  0.21732465     0.09050
H1252       H  0.70842223  0.97332114  0.21742351     0.06580
H1253       H  0.75113083  0.99670313  0.10468758     0.06430
C1254       C  0.78555491  0.98225356  0.33947954     0.03470
C1255       C  0.75653363  0.98316523  0.36190690    -0.12680
C1256       C  0.72755638  0.98309800  0.34057550     0.00970
C1257       C  0.72747926  0.98243024  0.29662326    -0.11210
C1258       C  0.75692357  0.98025580  0.27302091     0.03460
C1259       C  0.78612924  0.97946106  0.29573792    -0.10630
H1260       H  0.75617268  0.98478633  0.39581374     0.09050
H1261       H  0.70386101  0.98418750  0.28180825     0.06580
H1262       H  0.80989327  0.97698306  0.28053477     0.06430
C1263       C  0.50221293  0.62622195  0.40748608     0.00180
C1264       C  0.98274880  0.63754984  0.37098347    -0.11690
C1265       C  0.98320683  0.66622833  0.34901436     0.02420
C1266       C  0.50411957  0.68400633  0.36278979     0.00100
C1267       C  0.52283118  0.67341176  0.39980507    -0.11630
C1268       C  0.52173554  0.64528911  0.42246144     0.02300
H1269       H  0.96705937  0.62392558  0.35927608     0.15280
H1270       H  0.53854729  0.68716412  0.41110206     0.15280
C1271       C  0.54039547  0.63743820  0.46136712     0.36940
C1272       C  0.96092007  0.67756149  0.31332714     0.36840
N1273       N  0.55534856  0.63137010  0.49253035    -0.43410
N1274       N  0.94305612  0.68668525  0.28475744    -0.43400
C1275       C  0.50114275  0.86277347  0.40786712     0.00180
C1276       C  0.97652625  0.86598513  0.37703756    -0.11690
C1277       C  0.97657311  0.83717648  0.35454071     0.02420
C1278       C  0.50125805  0.80438746  0.36351655     0.00100
C1279       C  0.52530259  0.80126012  0.39523091    -0.11630
C1280       C  0.52558617  0.83015288  0.41713482     0.02300
H1281       H  0.95763819  0.89113622  0.37004508     0.15280
H1282       H  0.54435417  0.77622966  0.40231509     0.15280
C1283       C  0.55097708  0.82576091  0.44921755     0.36940
C1284       C  0.95089881  0.84192859  0.32274525     0.36840
N1285       N  0.57131602  0.82227460  0.97491897    -0.43410
N1286       N  0.93052057  0.84574748  0.29700715    -0.43400
C1287       C  0.50157914  0.62712546  0.09117173     0.00180
C1288       C  0.53151917  0.62568233  0.11178280    -0.11690
C1289       C  0.53251433  0.65407106  0.13416849     0.02420
C1290       C  0.50330129  0.68472676  0.13561259     0.00100
C1291       C  0.97366460  0.68651851  0.11406287    -0.11630
C1292       C  0.97250606  0.65795304  0.09211596     0.02300
H1293       H  0.55397523  0.60210424  0.11102312     0.15280
H1294       H  0.95134216  0.71019957  0.11468922     0.15280
C1295       C  0.94165426  0.66127317  0.06967846     0.36940
C1296       C  0.56395136  0.65135362  0.15484588     0.36840
N1297       N  0.91695026  0.66405414  0.05157126    -0.43410
N1298       N  0.58911990  0.64920429  0.17144272    -0.43400
C1299       C  0.49977041  0.86536097  0.09626601     0.00180
C1300       C  0.51709687  0.83362331  0.07687213    -0.11690
C1301       C  0.51975385  0.80297487  0.09648906     0.02420
C1302       C  0.50391787  0.80390595  0.13609477     0.00100
C1303       C  0.98599684  0.83611731  0.15496991    -0.11630
C1304       C  0.98424023  0.86663782  0.13566756     0.02300
H1305       H  0.52935823  0.83279579  0.04668562     0.15280
H1306       H  0.97330865  0.83752455  0.18498672     0.15280
C1307       C  0.96661118  0.89894693  0.15687455     0.36940
C1308       C  0.54025628  0.77121133  0.07588648     0.36840
N1309       N  0.95262360  0.92485660  0.17389066    -0.43410
N1310       N  0.55655771  0.74587125  0.05903895    -0.43400
C1311       C  0.87403034  0.98762435  0.40314635     0.00180
C1312       C  0.85481591  0.51412368  0.37617727    -0.11690
C1313       C  0.82591915  0.51288745  0.35541153     0.02420
C1314       C  0.81547199  0.98486808  0.36155296     0.00100
C1315       C  0.83429038  0.95844116  0.38827549    -0.11630
C1316       C  0.86345744  0.95923613  0.40866644     0.02300
H1317       H  0.86211164  0.53612722  0.37145959     0.15280
H1318       H  0.82647508  0.93669366  0.39257837     0.15280
C1319       C  0.88211800  0.92988975  0.43402818     0.36940
C1320       C  0.80686409  0.54107240  0.32865606     0.36840
N1321       N  0.89693995  0.90627719  0.45423919    -0.43410
N1322       N  0.79153538  0.56359777  0.30717480    -0.43400
C1323       C  0.69653988  0.98504150  0.36426085     0.00180
C1324       C  0.66925863  0.51671290  0.36790996    -0.11690
C1325       C  0.63907325  0.51950882  0.38930918     0.02420
C1326       C  0.63581614  0.99005075  0.40720174     0.00100
C1327       C  0.66327258  0.95833740  0.40338252    -0.11630
C1328       C  0.69355888  0.95569553  0.38238339     0.02300
H1329       H  0.67149482  0.53925081  0.35367109     0.15280
H1330       H  0.66111274  0.93555759  0.41701728     0.15280
C1331       C  0.72104310  0.92256851  0.37922929     0.36940
C1332       C  0.61135077  0.55253317  0.39050924     0.36840
N1333       N  0.74306944  0.89600940  0.37672701    -0.43410
N1334       N  0.58926145  0.57910560  0.39109899    -0.43400
C1335       C  0.86985173  0.99570302  0.09533929     0.00180
C1336       C  0.86722127  0.96355773  0.10187175    -0.11690
C1337       C  0.83869477  0.96095336  0.12224215     0.02420
C1338       C  0.81201594  0.99084492  0.13632458     0.00100
C1339       C  0.81426530  0.52290551  0.12992376    -0.11630
C1340       C  0.84279789  0.52566770  0.10962229     0.02300
H1341       H  0.88771171  0.94026167  0.09148302     0.15280
H1342       H  0.79360919  0.54585344  0.14090173     0.15280
C1343       C  0.84265489  0.55972508  0.10300176     0.36940
C1344       C  0.83739459  0.92735940  0.12864979     0.36840
N1345       N  0.84160974  0.58742999  0.09821077    -0.43410
N1346       N  0.83635070  0.90044895  0.13381069    -0.43400
C1347       C  0.69425790  0.98687143  0.13569075     0.00180
C1348       C  0.66206990  0.00309390  0.15536800    -0.11630
C1349       C  0.63162731  0.00551209  0.13543088     0.02420
C1350       C  0.63279248  0.99294948  0.09431603     0.00100
C1351       C  0.66448257  0.97709578  0.07421180    -0.11630
C1352       C  0.69513829  0.97327693  0.09464630     0.02300
H1353       H  0.66053558  0.01404935  0.18648652     0.15280
H1354       H  0.66530275  0.96660564  0.04289821     0.15280
C1355       C  0.72684090  0.95374569  0.07325939     0.36940
C1356       C  0.59947413  0.02071011  0.15782620     0.36840
N1357       N  0.75212914  0.93822162  0.05580412    -0.43410
N1358       N  0.57371537  0.53263521  0.17583048    -0.43400
O1359       O  0.58934018  0.97109754  0.58416637    -0.74950
O1360       O  0.58899106  0.51652996  0.54462714    -0.53860
C1361       C  0.60159961  0.99372181  0.57297214     0.78770
O1362       O  0.52652093  0.90344748  0.92050561    -0.59550
O1363       O  0.97698078  0.90881024  0.95520377    -0.52580
C1364       C  0.00148358  0.89375861  0.92922462     0.70790
O1365       O  0.59368184  0.96643471  0.92122964    -0.74110
O1366       O  0.58898255  0.51655254  0.95383337    -0.54680
C1367       C  0.60405548  0.99122332  0.92882978     0.76790
O1368       O  0.52277950  0.90813806  0.58615279    -0.59260
O1369       O  0.97702267  0.90923931  0.54684117    -0.52380
C1370       C  0.99959297  0.89648561  0.57530566     0.73380
Zr1371     Zr  0.54197010  0.95393597  0.56455629     2.54710
O1372       O  0.59288115  0.90160935  0.56614181    -0.79820
O1373       O  0.53815813  0.95822875  0.64065420    -0.93240
Zr1374     Zr  0.54509292  0.95032774  0.93966419     2.64680
O1375       O  0.59657719  0.89847608  0.94053009    -0.98190
O1376       O  0.54402320  0.95108700  0.86340660    -0.80260
O1377       O  0.56315033  0.96956564  0.00193254    -0.83610
O1378       O  0.52583422  0.93290484  0.00238356    -2.18320
O1379       O  0.91119140  0.52125703  0.58189961    -0.67000
O1380       O  0.91545967  0.97231692  0.54684051    -0.51570
C1381       C  0.90074142  0.49667510  0.57323094     0.71770
O1382       O  0.97795354  0.58343940  0.91872732    -0.59910
O1383       O  0.52600592  0.57965095  0.95453873    -0.51890
C1384       C  0.50195338  0.59449911  0.92845876     0.73570
O1385       O  0.91563409  0.51390739  0.91394386    -0.71310
O1386       O  0.91689801  0.96949224  0.95531725    -0.49980
C1387       C  0.90418728  0.49050860  0.92540744     0.74950
O1388       O  0.97600630  0.58646243  0.57809875    -0.66640
O1389       O  0.52638529  0.58019914  0.54493268    -0.53830
C1390       C  0.50121406  0.59600850  0.56979327     0.73330
Zr1391     Zr  0.95826419  0.53886218  0.56017615     2.77540
O1392       O  0.90838429  0.59148438  0.55240969    -0.97390
O1393       O  0.95668943  0.54193536  0.63634056    -0.78210
Zr1394     Zr  0.96092043  0.53483810  0.93575105     2.70070
O1395       O  0.90790079  0.58498409  0.93367651    -0.79450
O1396       O  0.96672072  0.53230591  0.85979279    -0.98540
Zr1397     Zr  0.53929615  0.53046393  0.99962443     2.21500
Zr1398     Zr  0.96493289  0.95802714  0.50108175     2.11130
O1399       O  0.94016011  0.51903421  0.49844906    -2.47220
O1400       O  0.97833769  0.55538936  0.49760855    -0.79250
O1401       O  0.98123305  0.97803611  0.56409111    -0.71440
O1402       O  0.52191045  0.51112659  0.93646494    -2.32400
O1403       O  0.51907227  0.51478500  0.56319629    -2.28610
O1404       O  0.98432805  0.97399402  0.93727340    -0.73200
H1405       H  0.53374123  0.90816035  0.00315104     0.78800
H1406       H  0.53084315  0.51891988  0.91227670     0.79880
H1407       H  0.91541721  0.52706400  0.49788056     0.82110
H1408       H  0.52698051  0.52379043  0.58722688     0.79720
H1409       H  0.54422849  0.97386578  0.85572474     0.42750
H1410       H  0.96935366  0.50850958  0.85228000     0.41720
H1411       H  0.90858202  0.59829884  0.95913795     0.41400
H1412       H  0.89068453  0.58420762  0.53962072     0.39330
H1413       H  0.96648544  0.51768846  0.64532810     0.42460
H1414       H  0.53747698  0.98157529  0.64727821     0.37250
H1415       H  0.60393480  0.90074054  0.53845657     0.43370
H1416       H  0.59105527  0.88288479  0.95996642     0.39780
H1417       H  0.90024521  0.59841174  0.58142124     0.44700
H1418       H  0.56095434  0.94271342  0.65038437     0.43420
H1419       H  0.59745480  0.88795663  0.91249710     0.43560
H1420       H  0.94364696  0.54662164  0.84956412     0.43920
C1421       C  0.50583271  0.77215762  0.65878823     0.03470
C1422       C  0.50102342  0.74490735  0.63764831    -0.12680
C1423       C  0.50358103  0.71513124  0.65903552     0.00970
C1424       C  0.50695360  0.71390566  0.70264684    -0.11210
C1425       C  0.51019306  0.74149162  0.72558855     0.03460
C1426       C  0.51145541  0.76969412  0.70230901    -0.10630
H1427       H  0.49576786  0.74643485  0.60441255     0.09050
H1428       H  0.50629885  0.69120805  0.71767026     0.06580
H1429       H  0.51672700  0.79028013  0.71726508     0.06430
C1430       C  0.50318746  0.77309783  0.83992740     0.03470
C1431       C  0.50256849  0.74435577  0.86145821    -0.12680
C1432       C  0.50619429  0.71407057  0.83979605     0.00970
C1433       C  0.51165735  0.71247863  0.79624112    -0.11210
C1434       C  0.51017398  0.74170992  0.77309052     0.03460
C1435       C  0.50645270  0.77182004  0.79613558    -0.10630
H1436       H  0.49878427  0.74579934  0.89512539     0.09050
H1437       H  0.51689799  0.68798959  0.78123190     0.06580
H1438       H  0.50585827  0.79488647  0.78094746     0.06430
C1439       C  0.78223034  0.98889816  0.65921089     0.03470
C1440       C  0.78373408  0.98508899  0.70259813    -0.12680
C1441       C  0.75657117  0.98105042  0.72554049     0.00970
C1442       C  0.72858871  0.97918834  0.70226947    -0.11210
C1443       C  0.72594751  0.98499905  0.65865778     0.03460
C1444       C  0.75281855  0.99071713  0.63771535    -0.10630
H1445       H  0.80640621  0.98598172  0.71732467     0.09050
H1446       H  0.70842224  0.97332113  0.71742352     0.06580
H1447       H  0.75113081  0.99670314  0.60468758     0.06430
C1448       C  0.78555493  0.98225354  0.83947953     0.03470
C1449       C  0.75653364  0.98316522  0.86190690    -0.12680
C1450       C  0.72755638  0.98309802  0.84057550     0.00970
C1451       C  0.72747925  0.98243029  0.79662326    -0.11210
C1452       C  0.75692356  0.98025583  0.77302091     0.03460
C1453       C  0.78612925  0.97946104  0.79573792    -0.10630
H1454       H  0.75617270  0.98478631  0.89581374     0.09050
H1455       H  0.70386098  0.98418759  0.78180826     0.06580
H1456       H  0.80989328  0.97698300  0.78053476     0.06430
C1457       C  0.50221293  0.62622194  0.90748606     0.00180
C1458       C  0.98274883  0.63754982  0.87098344    -0.11690
C1459       C  0.98320687  0.66622830  0.84901432     0.02420
C1460       C  0.50411959  0.68400631  0.86278977     0.00100
C1461       C  0.52283119  0.67341175  0.89980507    -0.11630
C1462       C  0.52173554  0.64528911  0.92246144     0.02300
H1463       H  0.96705941  0.62392555  0.85927604     0.15280
H1464       H  0.53854729  0.68716412  0.91110207     0.15280
C1465       C  0.54039545  0.63743821  0.96136714     0.36940
C1466       C  0.96092013  0.67756145  0.81332708     0.36840
N1467       N  0.55534852  0.63137012  0.99253037    -0.43410
N1468       N  0.94305619  0.68668519  0.78475737    -0.43400
C1469       C  0.50114276  0.86277346  0.90786710     0.00180
C1470       C  0.97652624  0.86598512  0.87703758    -0.11690
C1471       C  0.97657309  0.83717647  0.85454073     0.02420
C1472       C  0.50125804  0.80438745  0.86351654     0.00100
C1473       C  0.52530261  0.80126012  0.89523086    -0.11630
C1474       C  0.52558620  0.83015287  0.91713477     0.02300
H1475       H  0.95763816  0.89113621  0.87004512     0.15280
H1476       H  0.54435421  0.77622965  0.90231502     0.15280
C1477       C  0.55097713  0.82576090  0.94921748     0.36940
C1478       C  0.95089876  0.84192857  0.82274530     0.36840
N1479       N  0.57131595  0.82227462  0.47491907    -0.43410
N1480       N  0.93052050  0.84574746  0.79700723    -0.43400
C1481       C  0.50157911  0.62712548  0.59117171     0.00180
C1482       C  0.53151914  0.62568237  0.61178278    -0.11690
C1483       C  0.53251428  0.65407110  0.63416847     0.02420
C1484       C  0.50330123  0.68472678  0.63561258     0.00100
C1485       C  0.97366454  0.68651853  0.61406285    -0.11630
C1486       C  0.97250603  0.65795305  0.59211594     0.02300
H1487       H  0.55397520  0.60210429  0.61102310     0.15280
H1488       H  0.95134210  0.71019958  0.61468921     0.15280
C1489       C  0.94165423  0.66127317  0.56967844     0.36940
C1490       C  0.56395131  0.65135368  0.65484586     0.36840
N1491       N  0.91695023  0.66405413  0.55157124    -0.43410
N1492       N  0.58911985  0.64920436  0.67144270    -0.43400
C1493       C  0.49977038  0.86536100  0.59626603     0.00180
C1494       C  0.51709671  0.83362335  0.57687206    -0.11690
C1495       C  0.51975370  0.80297491  0.59648898     0.02420
C1496       C  0.50391784  0.80390597  0.63609477     0.00100
C1497       C  0.98599692  0.83611732  0.65496999    -0.11630
C1498       C  0.98424032  0.86663784  0.63566765     0.02300
H1499       H  0.52935797  0.83279585  0.54668548     0.15280
H1500       H  0.97330881  0.83752456  0.68498686     0.15280
C1501       C  0.96661139  0.89894693  0.65687473     0.36940
C1502       C  0.54025604  0.77121138  0.57588631     0.36840
N1503       N  0.95262391  0.92485659  0.67389090    -0.43410
N1504       N  0.55655739  0.74587131  0.55903870    -0.43400
C1505       C  0.87403036  0.98762433  0.90314636     0.00180
C1506       C  0.85481594  0.51412365  0.87617723    -0.11690
C1507       C  0.82591917  0.51288740  0.85541150     0.02420
C1508       C  0.81547201  0.98486805  0.86155295     0.00100
C1509       C  0.83429039  0.95844115  0.88827551    -0.11630
C1510       C  0.86345744  0.95923612  0.90866647     0.02300
H1511       H  0.86211167  0.53612717  0.87145954     0.15280
H1512       H  0.82647507  0.93669365  0.89257841     0.15280
C1513       C  0.88211798  0.92988975  0.93402825     0.36940
C1514       C  0.80686412  0.54107235  0.82865601     0.36840
N1515       N  0.89693991  0.90627721  0.95423929    -0.43410
N1516       N  0.79153543  0.56359770  0.80717473    -0.43400
C1517       C  0.69653988  0.98504152  0.86426087     0.00180
C1518       C  0.66925861  0.51671293  0.86790994    -0.11690
C1519       C  0.63907323  0.51950884  0.88930916     0.02420
C1520       C  0.63581615  0.99005076  0.90720175     0.00100
C1521       C  0.66327260  0.95833741  0.90338257    -0.11630
C1522       C  0.69355891  0.95569555  0.88238344     0.02300
H1523       H  0.67149479  0.53925084  0.85367105     0.15280
H1524       H  0.66111277  0.93555761  0.91701734     0.15280
C1525       C  0.72104314  0.92256854  0.87922937     0.36940
C1526       C  0.61135074  0.55253318  0.89050920     0.36840
N1527       N  0.74306949  0.89600944  0.87672711    -0.43410
N1528       N  0.58926141  0.57910561  0.89109894    -0.43400
C1529       C  0.86985170  0.99570307  0.59533929     0.00180
C1530       C  0.86722121  0.96355778  0.60187170    -0.11690
C1531       C  0.83869471  0.96095342  0.62224211     0.02420
C1532       C  0.81201591  0.99084498  0.63632458     0.00100
C1533       C  0.81426531  0.52290553  0.62992380    -0.11630
C1534       C  0.84279789  0.52566772  0.60962233     0.02300
H1535       H  0.88771163  0.94026172  0.59148294     0.15280
H1536       H  0.79360921  0.54585347  0.64090179     0.15280
C1537       C  0.84265491  0.55972510  0.60300184     0.36940
C1538       C  0.83739451  0.92735947  0.62864970     0.36840
N1539       N  0.84160977  0.58743001  0.59821087    -0.43410
N1540       N  0.83635059  0.90044902  0.63381057    -0.43400
C1541       C  0.69425789  0.98687142  0.63569077     0.00180
C1542       C  0.66206989  0.00309389  0.65536801    -0.11630
C1543       C  0.63162730  0.00551208  0.63543090     0.02420
C1544       C  0.63279247  0.99294948  0.59431604     0.00100
C1545       C  0.66448256  0.97709578  0.57421181    -0.11630
C1546       C  0.69513828  0.97327693  0.59464631     0.02300
H1547       H  0.66053557  0.01404933  0.68648654     0.15280
H1548       H  0.66530274  0.96660565  0.54289821     0.15280
C1549       C  0.72684089  0.95374569  0.57325940     0.36940
C1550       C  0.59947412  0.02071010  0.65782621     0.36840
N1551       N  0.75212913  0.93822162  0.55580413    -0.43410
N1552       N  0.57371539  0.53263516  0.67583049    -0.43400
loop_ 
_geom_bond_atom_site_label_1 
_geom_bond_atom_site_label_2 
_geom_bond_distance 
_geom_bond_site_symmetry_2 
_ccdc_geom_bond_type 
O1          Zr13   2.432       .  S
O1            C3   1.285       .  A
O2         Zr233   2.427   1_554  S
O2          C391   1.286   1_545  A
C3          O390   1.286       .  A
C3          C186   1.468       .  S
O4          Zr16   2.441       .  S
O4          C782   1.287       .  A
O5         Zr234   2.418       .  S
O5            C6   1.284       .  A
C6          O780   1.287       .  A
C6          C887   1.468       .  S
O7          Zr16   2.441       .  S
O7            C9   1.288       .  A
O8          Zr39   2.425       .  S
O8          C397   1.286   1_545  A
C9          O396   1.286       .  A
C9          C162   1.481       .  S
O10         Zr13   2.440       .  S
O10         C788   1.287   1_455  A
O11         Zr40   2.418       .  S
O11          C12   1.284       .  A
C12         O786   1.287       .  A
C12         C911   1.467       .  S
Zr13         O14   2.433       .  S
Zr13         O15   2.436       .  S
Zr13        O213   2.375       .  S
Zr13        O214   2.369       .  S
Zr13        O819   2.369   1_455  S
Zr13        O433   2.372       .  S
O14          H57   0.990       .  S
O15          H56   0.990       .  S
O15          H60   0.990       .  S
Zr16         O17   2.435       .  S
Zr16         O18   2.436       .  S
Zr16         O20   2.372       .  S
Zr16         O19   2.372       .  S
Zr16        O432   2.372       .  S
Zr16        O822   2.371   1_455  S
O17          H58   0.990       .  S
O17          H61   0.990       .  S
O18          H51   0.990       .  S
O19        Zr207   2.375       .  S
O19        Zr427   2.375       .  S
O20        Zr207   2.369       .  S
O20       Zr1010   2.377   1_455  S
O20          H47   0.966       .  S
O21         Zr33   2.446       .  S
O21          C23   1.289   1_545  A
O22         Zr40   2.416       .  S
O22         C411   1.286       .  A
C23         O410   1.286       .  A
C23         C559   1.486       .  S
O24         Zr36   2.456       .  S
O24         C802   1.292       .  A
O25         Zr39   2.414       .  S
O25          C26   1.285       .  A
C26         O800   1.292   1_455  A
C26          C99   1.495       .  S
O27         Zr36   2.469       .  S
O27          C29   1.294   1_545  A
O28        Zr234   2.398       .  S
O28         C417   1.281       .  A
C29         O416   1.281       .  A
C29         C535   1.497       .  S
O30         Zr33   2.439       .  S
O30         C808   1.287       .  A
O31        Zr233   2.421   1_554  S
O31          C32   1.286       .  A
C32         O806   1.287   1_455  A
C32         C123   1.474       .  S
Zr33         O34   2.432       .  S
Zr33         O35   2.434       .  S
Zr33         O41   2.370   1_554  S
Zr33         O42   2.368   1_554  S
Zr33        O821   2.374       .  S
Zr33        O431   2.374   1_545  S
O34          H54   0.990       .  S
O34          H59   0.990       .  S
O35          H55   0.990       .  S
Zr36         O37   2.434       .  S
Zr36         O38   2.434       .  S
Zr36        O236   2.374       .  S
Zr36        O235   2.371       .  S
Zr36        O434   2.372   1_545  S
Zr36        O820   2.378       .  S
O37          H53   0.990       .  S
O38          H52   0.990       .  S
O38          H62   0.990       .  S
Zr39        O196   2.427       .  S
Zr39        O225   2.421       .  S
Zr39         O44   2.385       .  S
Zr39        O407   2.375   1_545  S
Zr39       O1012   2.380   1_455  S
Zr39        O239   2.383       .  S
Zr40        O199   2.418   1_554  S
Zr40        O222   2.398   1_554  S
Zr40         O43   2.374       .  S
Zr40        O990   2.377       .  S
Zr40        O429   2.381   1_554  S
Zr40        O240   2.379   1_554  S
O41        Zr230   2.371       .  S
O41        Zr428   2.381   1_546  S
O41          H49   0.966       .  S
O42        Zr230   2.374       .  S
O42       Zr1009   2.380       .  S
O43        Zr789   2.369       .  S
O43        Zr421   2.374       .  S
O44        Zr404   2.372   1_545  S
O44        Zr812   2.378   1_455  S
O44          H48   0.966       .  S
O45        Zr401   2.372   1_545  S
O45        Zr809   2.374   1_455  S
O45        Zr233   2.383   1_554  S
O45          H50   0.966       .  S
O46        Zr792   2.371       .  S
O46        Zr424   2.372       .  S
O46        Zr234   2.379       .  S
C63         C138   1.495       .  S
C63          C64   1.401       .  A
C63          C68   1.409       .  A
C64          C65   1.395       .  A
C64          H69   1.082   1_455  S
C65         C126   1.478       .  S
C65          C66   1.400       .  A
C66          C67   1.414       .  A
C66          H70   1.077       .  S
C67          C76   1.517       .  S
C67          C68   1.417       .  A
C68          H71   1.076       .  S
C72         C114   1.485       .  S
C72          C73   1.399       .  A
C72          C77   1.403       .  A
C73          C74   1.400       .  A
C73          H78   1.084   1_455  S
C74         C102   1.491       .  S
C74          C75   1.405       .  A
C75          C76   1.416       .  A
C75          H79   1.076       .  S
C76          C77   1.415       .  A
C77          H80   1.076       .  S
C81         C174   1.472       .  S
C81          C82   1.394       .  A
C81          C86   1.392       .  A
C82          C83   1.413       .  A
C82          H87   1.076       .  S
C83          C94   1.517       .  S
C83          C84   1.418       .  A
C84          C85   1.413       .  A
C84          H88   1.077       .  S
C85         C183   1.498       .  S
C85          C86   1.402       .  A
C86          H89   1.082       .  S
C90         C150   1.481       .  S
C90          C91   1.397       .  A
C90          C95   1.400       .  A
C91          C92   1.397       .  A
C91          H96   1.084       .  S
C92         C159   1.477       .  S
C92          C93   1.404       .  A
C93          C94   1.417       .  A
C93          H97   1.078       .  S
C94          C95   1.417       .  A
C95          H98   1.076       .  S
C99         C104   1.421       .  A
C99         C876   1.407   1_455  A
C100        C101   1.401       .  A
C100        C875   1.407       .  A
C100        H105   1.084       .  S
C101        C878   1.414       .  A
C101        C108   1.445       .  S
C102        C103   1.403       .  A
C102        C877   1.414   1_455  A
C103        C104   1.401       .  A
C103        H106   1.085       .  S
C104        C107   1.445       .  S
C107        N109   1.158       .  T
C108        N110   1.157       .  T
C111        C782   1.468       .  S
C111        C116   1.408       .  A
C111        C888   1.401   1_455  A
C112        C113   1.401       .  A
C112        C887   1.401       .  A
C112        H117   1.085       .  S
C113        C890   1.415       .  A
C113        C120   1.444       .  S
C114        C115   1.405       .  A
C114        C889   1.415   1_455  A
C115        C116   1.399       .  A
C115        H118   1.085       .  S
C116        C119   1.444       .  S
C119        N315   1.157       .  T
C120        N122   1.157       .  T
N121        C313   1.157       .  T
C123        C124   1.402       .  A
C123        C904   1.412   1_455  A
C124        C125   1.399       .  A
C124        H129   1.085       .  S
C125        C126   1.412       .  A
C125        C132   1.444       .  S
C126        C903   1.402   1_455  A
C127        C128   1.400       .  A
C127        C902   1.402       .  A
C127        H130   1.085       .  S
C128        C899   1.412       .  A
C128        C131   1.444       .  S
C131        N133   1.157       .  T
C132        N134   1.157       .  T
C135        C788   1.467       .  S
C135        C136   1.398   1_655  A
C135        C916   1.405       .  A
C136        C137   1.399       .  A
C136        H141   1.084       .  S
C137        C138   1.419       .  A
C137        C144   1.444       .  S
C138        C915   1.410   1_455  A
C139        C140   1.400       .  A
C139        C914   1.410       .  A
C139        H142   1.084       .  S
C140        C911   1.405       .  A
C140        C143   1.444       .  S
C143        N145   1.157       .  T
C144        N146   1.157       .  T
C147        C417   1.497       .  S
C147        C152   1.426       .  A
C147        C536   1.408       .  A
C148        C149   1.402       .  A
C148        C535   1.408   1_545  A
C148        H153   1.084       .  S
C149        C538   1.411   1_545  A
C149        C156   1.444       .  S
C150        C151   1.397       .  A
C150        C537   1.411       .  A
C151        C152   1.400       .  A
C151        H154   1.085       .  S
C152        C155   1.445       .  S
C155        N157   1.158       .  T
C156        N158   1.157       .  T
C159        C164   1.408       .  A
C159        C548   1.401       .  A
C160        C161   1.401       .  A
C160        C547   1.401   1_545  A
C160        H165   1.085       .  S
C161        C550   1.414   1_545  A
C161        C168   1.443       .  S
C162        C163   1.406       .  A
C162        C549   1.414       .  A
C163        C164   1.400       .  A
C163        H166   1.085       .  S
C164        C167   1.444       .  S
C167        N169   1.157       .  T
C168        N170   1.157       .  T
C171        C411   1.486       .  S
C171        C172   1.408       .  A
C171        C564   1.418       .  A
C172        C173   1.398       .  A
C172        H177   1.085       .  S
C173        C174   1.407       .  A
C173        C180   1.444       .  S
C174        C563   1.397       .  A
C175        C176   1.400       .  A
C175        C562   1.397   1_545  A
C175        H178   1.085       .  S
C176        C559   1.418   1_545  A
C176        C179   1.442       .  S
C179        N181   1.157       .  T
C180        N182   1.157       .  T
C183        C184   1.410       .  A
C183        C188   1.421       .  A
C184        C185   1.400       .  A
C184        H189   1.084       .  S
C185        C186   1.406       .  A
C185        C192   1.445       .  S
C186        C187   1.398       .  A
C187        C188   1.401       .  A
C187        H190   1.085       .  S
C188        C191   1.444       .  S
C191        N193   1.157       .  T
C192        N582   1.157       .  T
N194        C580   1.157       .  T
O195       Zr207   2.432       .  S
O195        C197   1.285       .  A
O196        C585   1.286   1_545  A
C197        O584   1.286       .  A
C197        C380   1.468       .  S
O198       Zr210   2.441       .  S
O198        C976   1.287       .  A
O199        C200   1.284       .  A
C200        O974   1.287       .  A
C200       C1081   1.468       .  S
O201       Zr210   2.441       .  S
O201        C203   1.288       .  A
O202       Zr233   2.425       .  S
O202        C591   1.286   1_545  A
C203        O590   1.286       .  A
C203        C356   1.481       .  S
O204       Zr207   2.440       .  S
O204        C982   1.287   1_455  A
O205       Zr234   2.418       .  S
O205        C206   1.284       .  A
C206        O980   1.287       .  A
C206       C1105   1.467       .  S
Zr207       O208   2.433       .  S
Zr207       O209   2.436       .  S
Zr207      O1013   2.369   1_455  S
Zr207       O627   2.372       .  S
O208        H251   0.990       .  S
O209        H250   0.990       .  S
O209        H254   0.990       .  S
Zr210       O211   2.435       .  S
Zr210       O212   2.436       .  S
Zr210       O214   2.372   1_556  S
Zr210       O213   2.372   1_556  S
Zr210       O626   2.372       .  S
Zr210      O1016   2.371   1_455  S
O211        H252   0.990       .  S
O211        H255   0.990       .  S
O212        H245   0.990       .  S
O213       Zr621   2.375   1_554  S
O214       Zr816   2.377   1_455  S
O214        H241   0.966       .  S
O215       Zr227   2.446       .  S
O215        C217   1.289   1_545  A
O216       Zr234   2.416       .  S
O216        C605   1.286       .  A
C217        O604   1.286       .  A
C217        C753   1.486       .  S
O218       Zr230   2.456       .  S
O218        C996   1.292       .  A
O219       Zr233   2.414       .  S
O219        C220   1.285       .  A
C220        O994   1.292   1_455  A
C220        C293   1.495       .  S
O221       Zr230   2.469       .  S
O221        C223   1.294   1_545  A
O222        C611   1.281       .  A
C223        O610   1.281       .  A
C223        C729   1.497       .  S
O224       Zr227   2.439       .  S
O224       C1002   1.287       .  A
O225        C226   1.286       .  A
C226       O1000   1.287   1_455  A
C226        C317   1.474       .  S
Zr227       O228   2.432       .  S
Zr227       O229   2.434       .  S
Zr227       O235   2.370       .  S
Zr227       O236   2.368       .  S
Zr227      O1015   2.374       .  S
Zr227       O625   2.374   1_545  S
O228        H248   0.990       .  S
O228        H253   0.990       .  S
O229        H249   0.990       .  S
Zr230       O231   2.434       .  S
Zr230       O232   2.434       .  S
Zr230       O628   2.372   1_545  S
Zr230      O1014   2.378       .  S
O231        H247   0.990       .  S
O232        H246   0.990       .  S
O232        H256   0.990       .  S
Zr233       O601   2.375   1_546  S
Zr233       O818   2.380   1_455  S
Zr233       O238   2.385       .  S
Zr234       O796   2.377       .  S
Zr234       O623   2.381       .  S
Zr234       O237   2.374       .  S
O235       Zr622   2.381   1_545  S
O235        H243   0.966       .  S
O236       Zr815   2.380       .  S
O237       Zr983   2.369       .  S
O237       Zr615   2.374       .  S
O238       Zr598   2.372   1_545  S
O238      Zr1006   2.378   1_455  S
O238        H242   0.966       .  S
O239       Zr595   2.372   1_545  S
O239      Zr1003   2.374   1_455  S
O239        H244   0.966       .  S
O240       Zr986   2.371       .  S
O240       Zr618   2.372       .  S
C257        C332   1.495       .  S
C257        C258   1.401       .  A
C257        C262   1.409       .  A
C258        C259   1.395       .  A
C258        H263   1.082   1_455  S
C259        C320   1.478       .  S
C259        C260   1.400       .  A
C260        C261   1.414       .  A
C260        H264   1.077       .  S
C261        C270   1.517       .  S
C261        C262   1.417       .  A
C262        H265   1.076       .  S
C266        C308   1.485       .  S
C266        C267   1.399       .  A
C266        C271   1.403       .  A
C267        C268   1.400       .  A
C267        H272   1.084   1_455  S
C268        C296   1.491       .  S
C268        C269   1.405       .  A
C269        C270   1.416       .  A
C269        H273   1.076       .  S
C270        C271   1.415       .  A
C271        H274   1.076       .  S
C275        C368   1.472       .  S
C275        C276   1.394       .  A
C275        C280   1.392       .  A
C276        C277   1.413       .  A
C276        H281   1.076       .  S
C277        C288   1.517       .  S
C277        C278   1.418       .  A
C278        C279   1.413       .  A
C278        H282   1.077       .  S
C279        C377   1.498       .  S
C279        C280   1.402       .  A
C280        H283   1.082       .  S
C284        C344   1.481       .  S
C284        C285   1.397       .  A
C284        C289   1.400       .  A
C285        C286   1.397       .  A
C285        H290   1.084       .  S
C286        C353   1.477       .  S
C286        C287   1.404       .  A
C287        C288   1.417       .  A
C287        H291   1.078       .  S
C288        C289   1.417       .  A
C289        H292   1.076       .  S
C293       C1070   1.407   1_455  A
C293        C298   1.421       .  A
C294       C1069   1.407       .  A
C294        C295   1.401       .  A
C294        H299   1.084       .  S
C295       C1072   1.414       .  A
C295        C302   1.445       .  S
C296       C1071   1.414   1_455  A
C296        C297   1.403       .  A
C297        C298   1.401       .  A
C297        H300   1.085       .  S
C298        C301   1.445       .  S
C301        N303   1.158       .  T
C302        N304   1.157       .  T
C305        C976   1.468       .  S
C305       C1082   1.401   1_455  A
C305        C310   1.408       .  A
C306       C1081   1.401       .  A
C306        C307   1.401       .  A
C306        H311   1.085       .  S
C307       C1084   1.415       .  A
C307        C314   1.444       .  S
C308       C1083   1.415   1_455  A
C308        C309   1.405       .  A
C309        C310   1.399       .  A
C309        H312   1.085       .  S
C310        C313   1.444       .  S
C314        N316   1.157       .  T
C317        C318   1.402       .  A
C317       C1098   1.412   1_455  A
C318        C319   1.399       .  A
C318        H323   1.085       .  S
C319        C320   1.412       .  A
C319        C326   1.444       .  S
C320       C1097   1.402   1_455  A
C321       C1096   1.402       .  A
C321        C322   1.400       .  A
C321        H324   1.085       .  S
C322       C1093   1.412       .  A
C322        C325   1.444       .  S
C325        N327   1.157       .  T
C326        N328   1.157       .  T
C329        C982   1.467       .  S
C329        C330   1.398   1_655  A
C329       C1110   1.405       .  A
C330        C331   1.399       .  A
C330        H335   1.084       .  S
C331        C332   1.419       .  A
C331        C338   1.444       .  S
C332       C1109   1.410   1_455  A
C333       C1108   1.410       .  A
C333        C334   1.400       .  A
C333        H336   1.084       .  S
C334       C1105   1.405       .  A
C334        C337   1.444       .  S
C337        N339   1.157       .  T
C338        N340   1.157       .  T
C341        C611   1.497       .  S
C341        C730   1.408       .  A
C341        C346   1.426       .  A
C342        C729   1.408   1_545  A
C342        C343   1.402       .  A
C342        H347   1.084       .  S
C343        C732   1.411   1_545  A
C343        C350   1.444       .  S
C344        C731   1.411       .  A
C344        C345   1.397       .  A
C345        C346   1.400       .  A
C345        H348   1.085       .  S
C346        C349   1.445       .  S
C349        N351   1.158       .  T
C350        N352   1.157       .  T
C353        C742   1.401       .  A
C353        C358   1.408       .  A
C354        C741   1.401   1_545  A
C354        C355   1.401       .  A
C354        H359   1.085       .  S
C355        C744   1.414   1_545  A
C355        C362   1.443       .  S
C356        C743   1.414       .  A
C356        C357   1.406       .  A
C357        C358   1.400       .  A
C357        H360   1.085       .  S
C358        C361   1.444       .  S
C361        N363   1.157       .  T
C362        N364   1.157       .  T
C365        C605   1.486       .  S
C365        C366   1.408       .  A
C365        C758   1.418       .  A
C366        C367   1.398       .  A
C366        H371   1.085       .  S
C367        C368   1.407       .  A
C367        C374   1.444       .  S
C368        C757   1.397       .  A
C369        C756   1.397   1_545  A
C369        C370   1.400       .  A
C369        H372   1.085       .  S
C370        C753   1.418   1_545  A
C370        C373   1.442       .  S
C373        N375   1.157       .  T
C374        N376   1.157       .  T
C377        C378   1.410       .  A
C377        C382   1.421       .  A
C378        C379   1.400       .  A
C378        H383   1.084       .  S
C379        C380   1.406       .  A
C379        C386   1.445       .  S
C380        C381   1.398       .  A
C381        C382   1.401       .  A
C381        H384   1.085       .  S
C382        C385   1.444       .  S
C385        N387   1.157       .  T
C386        N776   1.157       .  T
N388        C774   1.157       .  T
O389       Zr401   2.432       .  S
O389        C391   1.285       .  A
O390       Zr621   2.427   1_554  S
C391        C574   1.468       .  S
O392       Zr404   2.441       .  S
O392       C1170   1.287       .  A
O393       Zr622   2.418       .  S
O393        C394   1.284       .  A
C394       O1168   1.287       .  A
C394       C1275   1.468       .  S
O395       Zr404   2.441       .  S
O395        C397   1.288       .  A
O396       Zr427   2.425       .  S
C397        C550   1.481       .  S
O398       Zr401   2.440       .  S
O398       C1176   1.287   1_455  A
O399       Zr428   2.418       .  S
O399        C400   1.284       .  A
C400       O1174   1.287       .  A
C400       C1299   1.467       .  S
Zr401       O402   2.433       .  S
Zr401       O403   2.436       .  S
Zr401       O601   2.375       .  S
Zr401       O602   2.369       .  S
Zr401      O1207   2.369   1_455  S
O402        H445   0.990       .  S
O403        H444   0.990       .  S
O403        H448   0.990       .  S
Zr404       O405   2.435       .  S
Zr404       O406   2.436       .  S
Zr404       O408   2.372       .  S
Zr404       O407   2.372       .  S
Zr404      O1210   2.371   1_455  S
O405        H446   0.990       .  S
O405        H449   0.990       .  S
O406        H439   0.990       .  S
O407       Zr595   2.375       .  S
O408       Zr595   2.369       .  S
O408      Zr1398   2.377   1_455  S
O408        H435   0.966       .  S
O409       Zr421   2.446       .  S
O409        C411   1.289       .  A
O410       Zr428   2.416       .  S
O412       Zr424   2.456       .  S
O412       C1190   1.292       .  A
O413       Zr427   2.414       .  S
O413        C414   1.285       .  A
C414       O1188   1.292   1_455  A
C414        C487   1.495       .  S
O415       Zr424   2.469       .  S
O415        C417   1.294       .  A
O416       Zr622   2.398       .  S
O418       Zr421   2.439       .  S
O418       C1196   1.287       .  A
O419       Zr621   2.421   1_554  S
O419        C420   1.286       .  A
C420       O1194   1.287   1_455  A
C420        C511   1.474       .  S
Zr421       O422   2.432       .  S
Zr421       O423   2.434       .  S
Zr421       O429   2.370   1_554  S
Zr421       O430   2.368   1_554  S
Zr421      O1209   2.374       .  S
O422        H442   0.990       .  S
O422        H447   0.990       .  S
O423        H443   0.990       .  S
Zr424       O425   2.434       .  S
Zr424       O426   2.434       .  S
Zr424       O624   2.374       .  S
Zr424       O623   2.371       .  S
Zr424      O1208   2.378       .  S
O425        H441   0.990       .  S
O426        H440   0.990       .  S
O426        H450   0.990       .  S
Zr427       O584   2.427       .  S
Zr427       O613   2.421       .  S
Zr427      O1400   2.380   1_455  S
Zr427       O432   2.385       .  S
Zr427       O627   2.383       .  S
Zr428       O587   2.418   1_554  S
Zr428       O610   2.398   1_554  S
Zr428      O1378   2.377       .  S
Zr428       O431   2.374       .  S
Zr428       O628   2.379   1_554  S
O429       Zr618   2.371       .  S
O429        H437   0.966       .  S
O430       Zr618   2.374       .  S
O430      Zr1397   2.380       .  S
O431      Zr1177   2.369       .  S
O432      Zr1200   2.378   1_455  S
O432        H436   0.966       .  S
O433      Zr1197   2.374   1_455  S
O433       Zr621   2.383   1_554  S
O433        H438   0.966       .  S
O434      Zr1180   2.371       .  S
O434       Zr622   2.379       .  S
C451        C526   1.495       .  S
C451        C452   1.401       .  A
C451        C456   1.409       .  A
C452        C453   1.395       .  A
C452        H457   1.082   1_455  S
C453        C514   1.478       .  S
C453        C454   1.400       .  A
C454        C455   1.414       .  A
C454        H458   1.077       .  S
C455        C464   1.517       .  S
C455        C456   1.417       .  A
C456        H459   1.076       .  S
C460        C502   1.485       .  S
C460        C461   1.399       .  A
C460        C465   1.403       .  A
C461        C462   1.400       .  A
C461        H466   1.084   1_455  S
C462        C490   1.491       .  S
C462        C463   1.405       .  A
C463        C464   1.416       .  A
C463        H467   1.076       .  S
C464        C465   1.415       .  A
C465        H468   1.076       .  S
C469        C562   1.472       .  S
C469        C470   1.394       .  A
C469        C474   1.392       .  A
C470        C471   1.413       .  A
C470        H475   1.076       .  S
C471        C482   1.517       .  S
C471        C472   1.418       .  A
C472        C473   1.413       .  A
C472        H476   1.077       .  S
C473        C571   1.498       .  S
C473        C474   1.402       .  A
C474        H477   1.082       .  S
C478        C538   1.481       .  S
C478        C479   1.397       .  A
C478        C483   1.400       .  A
C479        C480   1.397       .  A
C479        H484   1.084       .  S
C480        C547   1.477       .  S
C480        C481   1.404       .  A
C481        C482   1.417       .  A
C481        H485   1.078       .  S
C482        C483   1.417       .  A
C483        H486   1.076       .  S
C487       C1264   1.407   1_455  A
C487        C492   1.421       .  A
C488       C1263   1.407       .  A
C488        C489   1.401       .  A
C488        H493   1.084       .  S
C489       C1266   1.414       .  A
C489        C496   1.445       .  S
C490       C1265   1.414   1_455  A
C490        C491   1.403       .  A
C491        C492   1.401       .  A
C491        H494   1.085       .  S
C492        C495   1.445       .  S
C495        N497   1.158       .  T
C496        N498   1.157       .  T
C499       C1170   1.468       .  S
C499       C1276   1.401   1_455  A
C499        C504   1.408       .  A
C500       C1275   1.401       .  A
C500        C501   1.401       .  A
C500        H505   1.085       .  S
C501       C1278   1.415       .  A
C501        C508   1.444       .  S
C502       C1277   1.415   1_455  A
C502        C503   1.405       .  A
C503        C504   1.399       .  A
C503        H506   1.085       .  S
C504        C507   1.444       .  S
C507        N703   1.157       .  T
C508        N510   1.157       .  T
N509        C701   1.157       .  T
C511        C512   1.402       .  A
C511       C1292   1.412   1_455  A
C512        C513   1.399       .  A
C512        H517   1.085       .  S
C513        C514   1.412       .  A
C513        C520   1.444       .  S
C514       C1291   1.402   1_455  A
C515       C1290   1.402       .  A
C515        C516   1.400       .  A
C515        H518   1.085       .  S
C516       C1287   1.412       .  A
C516        C519   1.444       .  S
C519        N521   1.157       .  T
C520        N522   1.157       .  T
C523       C1176   1.467       .  S
C523        C524   1.398   1_655  A
C523       C1304   1.405       .  A
C524        C525   1.399       .  A
C524        H529   1.084       .  S
C525        C526   1.419       .  A
C525        C532   1.444       .  S
C526       C1303   1.410   1_455  A
C527       C1302   1.410       .  A
C527        C528   1.400       .  A
C527        H530   1.084       .  S
C528       C1299   1.405       .  A
C528        C531   1.444       .  S
C531        N533   1.157       .  T
C532        N534   1.157       .  T
C535        C540   1.426       .  A
C536        C537   1.402       .  A
C536        H541   1.084       .  S
C537        C544   1.444       .  S
C538        C539   1.397       .  A
C539        C540   1.400       .  A
C539        H542   1.085       .  S
C540        C543   1.445       .  S
C543        N545   1.158       .  T
C544        N546   1.157       .  T
C547        C552   1.408       .  A
C548        C549   1.401       .  A
C548        H553   1.085       .  S
C549        C556   1.443       .  S
C550        C551   1.406       .  A
C551        C552   1.400       .  A
C551        H554   1.085       .  S
C552        C555   1.444       .  S
C555        N557   1.157       .  T
C556        N558   1.157       .  T
C559        C560   1.408       .  A
C560        C561   1.398       .  A
C560        H565   1.085       .  S
C561        C562   1.407       .  A
C561        C568   1.444       .  S
C563        C564   1.400       .  A
C563        H566   1.085       .  S
C564        C567   1.442       .  S
C567        N569   1.157       .  T
C568        N570   1.157       .  T
C571        C572   1.410   1_565  A
C571        C576   1.421       .  A
C572        C573   1.400       .  A
C572        H577   1.084       .  S
C573        C574   1.406   1_545  A
C573        C580   1.445       .  S
C574        C575   1.398       .  A
C575        C576   1.401       .  A
C575        H578   1.085       .  S
C576        C579   1.444       .  S
C579        N581   1.157       .  T
O583       Zr595   2.432       .  S
O583        C585   1.285       .  A
C585        C768   1.468       .  S
O586       Zr598   2.441       .  S
O586       C1364   1.287       .  A
O587        C588   1.284       .  A
C588       O1362   1.287       .  A
C588       C1469   1.468       .  S
O589       Zr598   2.441       .  S
O589        C591   1.288       .  A
O590       Zr621   2.425       .  S
C591        C744   1.481       .  S
O592       Zr595   2.440       .  S
O592       C1370   1.287   1_455  A
O593       Zr622   2.418       .  S
O593        C594   1.284       .  A
C594       O1368   1.287       .  A
C594       C1493   1.467       .  S
Zr595       O596   2.433       .  S
Zr595       O597   2.436       .  S
Zr595      O1401   2.369   1_455  S
O596        H639   0.990       .  S
O597        H638   0.990       .  S
O597        H642   0.990       .  S
Zr598       O599   2.435       .  S
Zr598       O600   2.436       .  S
Zr598       O602   2.372   1_556  S
Zr598       O601   2.372   1_556  S
Zr598      O1404   2.371   1_455  S
O599        H640   0.990       .  S
O599        H643   0.990       .  S
O600        H633   0.990       .  S
O602      Zr1204   2.377   1_455  S
O602        H629   0.966       .  S
O603       Zr615   2.446       .  S
O603        C605   1.289       .  A
O604       Zr622   2.416       .  S
O606       Zr618   2.456       .  S
O606       C1384   1.292       .  A
O607       Zr621   2.414       .  S
O607        C608   1.285       .  A
C608       O1382   1.292   1_455  A
C608        C681   1.495       .  S
O609       Zr618   2.469       .  S
O609        C611   1.294       .  A
O612       Zr615   2.439       .  S
O612       C1390   1.287       .  A
O613        C614   1.286       .  A
C614       O1388   1.287   1_455  A
C614        C705   1.474       .  S
Zr615       O616   2.432       .  S
Zr615       O617   2.434       .  S
Zr615       O623   2.370       .  S
Zr615       O624   2.368       .  S
Zr615      O1403   2.374       .  S
O616        H636   0.990       .  S
O616        H641   0.990       .  S
O617        H637   0.990       .  S
Zr618       O619   2.434       .  S
Zr618       O620   2.434       .  S
Zr618      O1402   2.378       .  S
O619        H635   0.990       .  S
O620        H634   0.990       .  S
O620        H644   0.990       .  S
Zr621      O1206   2.380   1_455  S
Zr621       O626   2.385       .  S
Zr622      O1184   2.377       .  S
Zr622       O625   2.374       .  S
O623        H631   0.966       .  S
O624      Zr1203   2.380       .  S
O625      Zr1371   2.369       .  S
O626      Zr1394   2.378   1_455  S
O626        H630   0.966       .  S
O627      Zr1391   2.374   1_455  S
O627        H632   0.966       .  S
O628      Zr1374   2.371       .  S
C645        C720   1.495       .  S
C645        C646   1.401       .  A
C645        C650   1.409       .  A
C646        C647   1.395       .  A
C646        H651   1.082   1_455  S
C647        C708   1.478       .  S
C647        C648   1.400       .  A
C648        C649   1.414       .  A
C648        H652   1.077       .  S
C649        C658   1.517       .  S
C649        C650   1.417       .  A
C650        H653   1.076       .  S
C654        C696   1.485       .  S
C654        C655   1.399       .  A
C654        C659   1.403       .  A
C655        C656   1.400       .  A
C655        H660   1.084   1_455  S
C656        C684   1.491       .  S
C656        C657   1.405       .  A
C657        C658   1.416       .  A
C657        H661   1.076       .  S
C658        C659   1.415       .  A
C659        H662   1.076       .  S
C663        C756   1.472       .  S
C663        C664   1.394       .  A
C663        C668   1.392       .  A
C664        C665   1.413       .  A
C664        H669   1.076       .  S
C665        C676   1.517       .  S
C665        C666   1.418       .  A
C666        C667   1.413       .  A
C666        H670   1.077       .  S
C667        C765   1.498       .  S
C667        C668   1.402       .  A
C668        H671   1.082       .  S
C672        C732   1.481       .  S
C672        C673   1.397       .  A
C672        C677   1.400       .  A
C673        C674   1.397       .  A
C673        H678   1.084       .  S
C674        C741   1.477       .  S
C674        C675   1.404       .  A
C675        C676   1.417       .  A
C675        H679   1.078       .  S
C676        C677   1.417       .  A
C677        H680   1.076       .  S
C681       C1458   1.407   1_455  A
C681        C686   1.421       .  A
C682       C1457   1.407       .  A
C682        C683   1.401       .  A
C682        H687   1.084       .  S
C683       C1460   1.414       .  A
C683        C690   1.445       .  S
C684       C1459   1.414   1_455  A
C684        C685   1.403       .  A
C685        C686   1.401       .  A
C685        H688   1.085       .  S
C686        C689   1.445       .  S
C689        N691   1.158       .  T
C690        N692   1.157       .  T
C693       C1364   1.468       .  S
C693       C1470   1.401   1_455  A
C693        C698   1.408       .  A
C694       C1469   1.401       .  A
C694        C695   1.401       .  A
C694        H699   1.085       .  S
C695       C1472   1.415       .  A
C695        C702   1.444       .  S
C696       C1471   1.415   1_455  A
C696        C697   1.405       .  A
C697        C698   1.399       .  A
C697        H700   1.085       .  S
C698        C701   1.444       .  S
C702        N704   1.157       .  T
C705        C706   1.402       .  A
C705       C1486   1.412   1_455  A
C706        C707   1.399       .  A
C706        H711   1.085       .  S
C707        C708   1.412       .  A
C707        C714   1.444       .  S
C708       C1485   1.402   1_455  A
C709       C1484   1.402       .  A
C709        C710   1.400       .  A
C709        H712   1.085       .  S
C710       C1481   1.412       .  A
C710        C713   1.444       .  S
C713        N715   1.157       .  T
C714        N716   1.157       .  T
C717       C1370   1.467       .  S
C717        C718   1.398   1_655  A
C717       C1498   1.405       .  A
C718        C719   1.399       .  A
C718        H723   1.084       .  S
C719        C720   1.419       .  A
C719        C726   1.444       .  S
C720       C1497   1.410   1_455  A
C721       C1496   1.410       .  A
C721        C722   1.400       .  A
C721        H724   1.084       .  S
C722       C1493   1.405       .  A
C722        C725   1.444       .  S
C725        N727   1.157       .  T
C726        N728   1.157       .  T
C729        C734   1.426       .  A
C730        C731   1.402       .  A
C730        H735   1.084       .  S
C731        C738   1.444       .  S
C732        C733   1.397       .  A
C733        C734   1.400       .  A
C733        H736   1.085       .  S
C734        C737   1.445       .  S
C737        N739   1.158       .  T
C738        N740   1.157       .  T
C741        C746   1.408       .  A
C742        C743   1.401       .  A
C742        H747   1.085       .  S
C743        C750   1.443       .  S
C744        C745   1.406       .  A
C745        C746   1.400       .  A
C745        H748   1.085       .  S
C746        C749   1.444       .  S
C749        N751   1.157       .  T
C750        N752   1.157       .  T
C753        C754   1.408       .  A
C754        C755   1.398       .  A
C754        H759   1.085       .  S
C755        C756   1.407       .  A
C755        C762   1.444       .  S
C757        C758   1.400       .  A
C757        H760   1.085       .  S
C758        C761   1.442       .  S
C761        N763   1.157       .  T
C762        N764   1.157       .  T
C765        C766   1.410   1_565  A
C765        C770   1.421       .  A
C766        C767   1.400       .  A
C766        H771   1.084       .  S
C767        C768   1.406   1_545  A
C767        C774   1.445       .  S
C768        C769   1.398       .  A
C769        C770   1.401       .  A
C769        H772   1.085       .  S
C770        C773   1.444       .  S
C773        N775   1.157       .  T
O777       Zr789   2.432       .  S
O777        C779   1.285       .  A
O778      Zr1009   2.427   1_554  S
O778       C1167   1.286   1_545  A
C779       O1166   1.286       .  A
C779        C962   1.468       .  S
O780       Zr792   2.441       .  S
O781      Zr1010   2.418       .  S
O781        C782   1.284   1_655  A
O783       Zr792   2.441       .  S
O783        C785   1.288       .  A
O784       Zr815   2.425       .  S
O784       C1173   1.286   1_545  A
C785       O1172   1.286       .  A
C785        C938   1.481       .  S
O786       Zr789   2.440       .  S
O787       Zr816   2.418       .  S
O787        C788   1.284       .  A
Zr789       O790   2.433       .  S
Zr789       O791   2.436       .  S
Zr789       O989   2.375       .  S
Zr789       O990   2.369       .  S
Zr789      O1209   2.372       .  S
O790        H833   0.990       .  S
O791        H832   0.990       .  S
O791        H836   0.990       .  S
Zr792       O793   2.435       .  S
Zr792       O794   2.436       .  S
Zr792       O796   2.372       .  S
Zr792       O795   2.372       .  S
Zr792      O1208   2.372       .  S
O793        H834   0.990       .  S
O793        H837   0.990       .  S
O794        H827   0.990       .  S
O795       Zr983   2.375       .  S
O795      Zr1203   2.375       .  S
O796       Zr983   2.369       .  S
O796        H823   0.966       .  S
O797       Zr809   2.446       .  S
O797        C799   1.289   1_545  A
O798       Zr816   2.416       .  S
O798       C1187   1.286       .  A
C799       O1186   1.286       .  A
C799       C1335   1.486       .  S
O800       Zr812   2.456       .  S
O801       Zr815   2.414       .  S
O801        C802   1.285       .  A
C802        C875   1.495       .  S
O803       Zr812   2.469       .  S
O803        C805   1.294   1_545  A
O804      Zr1010   2.398       .  S
O804       C1193   1.281       .  A
C805       O1192   1.281       .  A
C805       C1311   1.497       .  S
O806       Zr809   2.439       .  S
O807      Zr1009   2.421   1_554  S
O807        C808   1.286       .  A
C808        C899   1.474       .  S
Zr809       O810   2.432       .  S
Zr809       O811   2.434       .  S
Zr809       O817   2.370   1_554  S
Zr809       O818   2.368   1_554  S
Zr809      O1207   2.374   1_545  S
O810        H830   0.990       .  S
O810        H835   0.990       .  S
O811        H831   0.990       .  S
Zr812       O813   2.434       .  S
Zr812       O814   2.434       .  S
Zr812      O1012   2.374       .  S
Zr812      O1011   2.371       .  S
Zr812      O1210   2.372   1_545  S
O813        H829   0.990       .  S
O814        H828   0.990       .  S
O814        H838   0.990       .  S
Zr815       O972   2.427       .  S
Zr815      O1001   2.421       .  S
Zr815      O1183   2.375   1_545  S
Zr815       O820   2.385       .  S
Zr815      O1015   2.383       .  S
Zr816       O975   2.418   1_554  S
Zr816       O998   2.398   1_554  S
Zr816      O1205   2.381   1_554  S
Zr816       O819   2.374       .  S
Zr816      O1016   2.379   1_554  S
O817      Zr1006   2.371       .  S
O817      Zr1204   2.381   1_546  S
O817        H825   0.966       .  S
O818      Zr1006   2.374       .  S
O819      Zr1197   2.374       .  S
O820      Zr1180   2.372   1_545  S
O820        H824   0.966       .  S
O821      Zr1177   2.372   1_545  S
O821      Zr1009   2.383   1_554  S
O821        H826   0.966       .  S
O822      Zr1200   2.372       .  S
O822      Zr1010   2.379       .  S
C839        C914   1.495       .  S
C839        C840   1.401       .  A
C839        C844   1.409       .  A
C840        C841   1.395       .  A
C840        H845   1.082       .  S
C841        C902   1.478       .  S
C841        C842   1.400       .  A
C842        C843   1.414       .  A
C842        H846   1.077       .  S
C843        C852   1.517       .  S
C843        C844   1.417       .  A
C844        H847   1.076       .  S
C848        C890   1.485       .  S
C848        C849   1.399       .  A
C848        C853   1.403       .  A
C849        C850   1.400       .  A
C849        H854   1.084       .  S
C850        C878   1.491       .  S
C850        C851   1.405       .  A
C851        C852   1.416       .  A
C851        H855   1.076       .  S
C852        C853   1.415       .  A
C853        H856   1.076       .  S
C857        C950   1.472       .  S
C857        C858   1.394       .  A
C857        C862   1.392       .  A
C858        C859   1.413       .  A
C858        H863   1.076       .  S
C859        C870   1.517       .  S
C859        C860   1.418       .  A
C860        C861   1.413       .  A
C860        H864   1.077       .  S
C861        C959   1.498       .  S
C861        C862   1.402       .  A
C862        H865   1.082       .  S
C866        C926   1.481       .  S
C866        C867   1.397       .  A
C866        C871   1.400       .  A
C867        C868   1.397       .  A
C867        H872   1.084       .  S
C868        C935   1.477       .  S
C868        C869   1.404       .  A
C869        C870   1.417       .  A
C869        H873   1.078       .  S
C870        C871   1.417       .  A
C871        H874   1.076       .  S
C875        C880   1.421       .  A
C876        C877   1.401       .  A
C876        H881   1.084       .  S
C877        C884   1.445       .  S
C878        C879   1.403       .  A
C879        C880   1.401       .  A
C879        H882   1.085       .  S
C880        C883   1.445       .  S
C883        N885   1.158       .  T
C884        N886   1.157       .  T
C887        C892   1.408       .  A
C888        C889   1.401       .  A
C888        H893   1.085       .  S
C889        C896   1.444       .  S
C890        C891   1.405       .  A
C891        C892   1.399       .  A
C891        H894   1.085       .  S
C892        C895   1.444       .  S
C895       N1091   1.157       .  T
C896        N898   1.157       .  T
N897       C1089   1.157       .  T
C899        C900   1.402       .  A
C900        C901   1.399       .  A
C900        H905   1.085       .  S
C901        C902   1.412       .  A
C901        C908   1.444       .  S
C903        C904   1.400       .  A
C903        H906   1.085       .  S
C904        C907   1.444       .  S
C907        N909   1.157       .  T
C908        N910   1.157       .  T
C911        C912   1.398       .  A
C912        C913   1.399       .  A
C912        H917   1.084       .  S
C913        C914   1.419       .  A
C913        C920   1.444       .  S
C915        C916   1.400       .  A
C915        H918   1.084       .  S
C916        C919   1.444       .  S
C919        N921   1.157       .  T
C920        N922   1.157       .  T
C923       C1193   1.497       .  S
C923       C1312   1.408       .  A
C923        C928   1.426       .  A
C924       C1311   1.408   1_545  A
C924        C925   1.402       .  A
C924        H929   1.084       .  S
C925       C1314   1.411   1_545  A
C925        C932   1.444       .  S
C926       C1313   1.411       .  A
C926        C927   1.397       .  A
C927        C928   1.400       .  A
C927        H930   1.085       .  S
C928        C931   1.445       .  S
C931        N933   1.158       .  T
C932        N934   1.157       .  T
C935       C1324   1.401       .  A
C935        C940   1.408       .  A
C936       C1323   1.401   1_545  A
C936        C937   1.401       .  A
C936        H941   1.085       .  S
C937       C1326   1.414   1_545  A
C937        C944   1.443       .  S
C938       C1325   1.414       .  A
C938        C939   1.406       .  A
C939        C940   1.400       .  A
C939        H942   1.085       .  S
C940        C943   1.444       .  S
C943        N945   1.157       .  T
C944        N946   1.157       .  T
C947       C1187   1.486       .  S
C947        C948   1.408       .  A
C947       C1340   1.418       .  A
C948        C949   1.398       .  A
C948        H953   1.085       .  S
C949        C950   1.407       .  A
C949        C956   1.444       .  S
C950       C1339   1.397       .  A
C951       C1338   1.397   1_545  A
C951        C952   1.400       .  A
C951        H954   1.085       .  S
C952       C1335   1.418   1_545  A
C952        C955   1.442       .  S
C955        N957   1.157       .  T
C956        N958   1.157       .  T
C959        C960   1.410       .  A
C959        C964   1.421       .  A
C960        C961   1.400       .  A
C960        H965   1.084       .  S
C961        C962   1.406       .  A
C961        C968   1.445       .  S
C962        C963   1.398       .  A
C963        C964   1.401       .  A
C963        H966   1.085       .  S
C964        C967   1.444       .  S
C967        N969   1.157       .  T
C968       N1358   1.157       .  T
N970       C1356   1.157       .  T
O971       Zr983   2.432       .  S
O971        C973   1.285       .  A
O972       C1361   1.286   1_545  A
C973       O1360   1.286       .  A
C973       C1156   1.468       .  S
O974       Zr986   2.441       .  S
O975        C976   1.284   1_655  A
O977       Zr986   2.441       .  S
O977        C979   1.288       .  A
O978      Zr1009   2.425       .  S
O978       C1367   1.286   1_545  A
C979       O1366   1.286       .  A
C979       C1132   1.481       .  S
O980       Zr983   2.440       .  S
O981      Zr1010   2.418       .  S
O981        C982   1.284       .  A
Zr983       O984   2.433       .  S
Zr983       O985   2.436       .  S
Zr983      O1403   2.372       .  S
O984       H1027   0.990       .  S
O985       H1026   0.990       .  S
O985       H1030   0.990       .  S
Zr986       O987   2.435       .  S
Zr986       O988   2.436       .  S
Zr986       O990   2.372   1_556  S
Zr986       O989   2.372   1_556  S
Zr986      O1402   2.372       .  S
O987       H1028   0.990       .  S
O987       H1031   0.990       .  S
O988       H1021   0.990       .  S
O989      Zr1397   2.375   1_554  S
O990       H1017   0.966       .  S
O991      Zr1003   2.446       .  S
O991        C993   1.289   1_545  A
O992      Zr1010   2.416       .  S
O992       C1381   1.286       .  A
C993       O1380   1.286       .  A
C993       C1529   1.486       .  S
O994      Zr1006   2.456       .  S
O995      Zr1009   2.414       .  S
O995        C996   1.285       .  A
C996       C1069   1.495       .  S
O997      Zr1006   2.469       .  S
O997        C999   1.294   1_545  A
O998       C1387   1.281       .  A
C999       O1386   1.281       .  A
C999       C1505   1.497       .  S
O1000     Zr1003   2.439       .  S
O1001      C1002   1.286       .  A
C1002      C1093   1.474       .  S
Zr1003     O1004   2.432       .  S
Zr1003     O1005   2.434       .  S
Zr1003     O1011   2.370       .  S
Zr1003     O1012   2.368       .  S
Zr1003     O1401   2.374   1_545  S
O1004      H1024   0.990       .  S
O1004      H1029   0.990       .  S
O1005      H1025   0.990       .  S
Zr1006     O1007   2.434       .  S
Zr1006     O1008   2.434       .  S
Zr1006     O1404   2.372   1_545  S
O1007      H1023   0.990       .  S
O1008      H1022   0.990       .  S
O1008      H1032   0.990       .  S
Zr1009     O1377   2.375   1_546  S
Zr1009     O1014   2.385       .  S
Zr1010     O1399   2.381       .  S
Zr1010     O1013   2.374       .  S
O1011     Zr1398   2.381   1_545  S
O1011      H1019   0.966       .  S
O1013     Zr1391   2.374       .  S
O1014     Zr1374   2.372   1_545  S
O1014      H1018   0.966       .  S
O1015     Zr1371   2.372   1_545  S
O1015      H1020   0.966       .  S
O1016     Zr1394   2.372       .  S
C1033      C1108   1.495       .  S
C1033      C1034   1.401       .  A
C1033      C1038   1.409       .  A
C1034      C1035   1.395       .  A
C1034      H1039   1.082       .  S
C1035      C1096   1.478       .  S
C1035      C1036   1.400       .  A
C1036      C1037   1.414       .  A
C1036      H1040   1.077       .  S
C1037      C1046   1.517       .  S
C1037      C1038   1.417       .  A
C1038      H1041   1.076       .  S
C1042      C1084   1.485       .  S
C1042      C1043   1.399       .  A
C1042      C1047   1.403       .  A
C1043      C1044   1.400       .  A
C1043      H1048   1.084       .  S
C1044      C1072   1.491       .  S
C1044      C1045   1.405       .  A
C1045      C1046   1.416       .  A
C1045      H1049   1.076       .  S
C1046      C1047   1.415       .  A
C1047      H1050   1.076       .  S
C1051      C1144   1.472       .  S
C1051      C1052   1.394       .  A
C1051      C1056   1.392       .  A
C1052      C1053   1.413       .  A
C1052      H1057   1.076       .  S
C1053      C1064   1.517       .  S
C1053      C1054   1.418       .  A
C1054      C1055   1.413       .  A
C1054      H1058   1.077       .  S
C1055      C1153   1.498       .  S
C1055      C1056   1.402       .  A
C1056      H1059   1.082       .  S
C1060      C1120   1.481       .  S
C1060      C1061   1.397       .  A
C1060      C1065   1.400       .  A
C1061      C1062   1.397       .  A
C1061      H1066   1.084       .  S
C1062      C1129   1.477       .  S
C1062      C1063   1.404       .  A
C1063      C1064   1.417       .  A
C1063      H1067   1.078       .  S
C1064      C1065   1.417       .  A
C1065      H1068   1.076       .  S
C1069      C1074   1.421       .  A
C1070      C1071   1.401       .  A
C1070      H1075   1.084       .  S
C1071      C1078   1.445       .  S
C1072      C1073   1.403       .  A
C1073      C1074   1.401       .  A
C1073      H1076   1.085       .  S
C1074      C1077   1.445       .  S
C1077      N1079   1.158       .  T
C1078      N1080   1.157       .  T
C1081      C1086   1.408       .  A
C1082      C1083   1.401       .  A
C1082      H1087   1.085       .  S
C1083      C1090   1.444       .  S
C1084      C1085   1.405       .  A
C1085      C1086   1.399       .  A
C1085      H1088   1.085       .  S
C1086      C1089   1.444       .  S
C1090      N1092   1.157       .  T
C1093      C1094   1.402       .  A
C1094      C1095   1.399       .  A
C1094      H1099   1.085       .  S
C1095      C1096   1.412       .  A
C1095      C1102   1.444       .  S
C1097      C1098   1.400       .  A
C1097      H1100   1.085       .  S
C1098      C1101   1.444       .  S
C1101      N1103   1.157       .  T
C1102      N1104   1.157       .  T
C1105      C1106   1.398       .  A
C1106      C1107   1.399       .  A
C1106      H1111   1.084       .  S
C1107      C1108   1.419       .  A
C1107      C1114   1.444       .  S
C1109      C1110   1.400       .  A
C1109      H1112   1.084       .  S
C1110      C1113   1.444       .  S
C1113      N1115   1.157       .  T
C1114      N1116   1.157       .  T
C1117      C1387   1.497       .  S
C1117      C1506   1.408       .  A
C1117      C1122   1.426       .  A
C1118      C1505   1.408   1_545  A
C1118      C1119   1.402       .  A
C1118      H1123   1.084       .  S
C1119      C1508   1.411   1_545  A
C1119      C1126   1.444       .  S
C1120      C1507   1.411       .  A
C1120      C1121   1.397       .  A
C1121      C1122   1.400       .  A
C1121      H1124   1.085       .  S
C1122      C1125   1.445       .  S
C1125      N1127   1.158       .  T
C1126      N1128   1.157       .  T
C1129      C1518   1.401       .  A
C1129      C1134   1.408       .  A
C1130      C1517   1.401   1_545  A
C1130      C1131   1.401       .  A
C1130      H1135   1.085       .  S
C1131      C1520   1.414   1_545  A
C1131      C1138   1.443       .  S
C1132      C1519   1.414       .  A
C1132      C1133   1.406       .  A
C1133      C1134   1.400       .  A
C1133      H1136   1.085       .  S
C1134      C1137   1.444       .  S
C1137      N1139   1.157       .  T
C1138      N1140   1.157       .  T
C1141      C1381   1.486       .  S
C1141      C1142   1.408       .  A
C1141      C1534   1.418       .  A
C1142      C1143   1.398       .  A
C1142      H1147   1.085       .  S
C1143      C1144   1.407       .  A
C1143      C1150   1.444       .  S
C1144      C1533   1.397       .  A
C1145      C1532   1.397   1_545  A
C1145      C1146   1.400       .  A
C1145      H1148   1.085       .  S
C1146      C1529   1.418   1_545  A
C1146      C1149   1.442       .  S
C1149      N1151   1.157       .  T
C1150      N1152   1.157       .  T
C1153      C1154   1.410       .  A
C1153      C1158   1.421       .  A
C1154      C1155   1.400       .  A
C1154      H1159   1.084       .  S
C1155      C1156   1.406       .  A
C1155      C1162   1.445       .  S
C1156      C1157   1.398       .  A
C1157      C1158   1.401       .  A
C1157      H1160   1.085       .  S
C1158      C1161   1.444       .  S
C1161      N1163   1.157       .  T
C1162      N1552   1.157       .  T
N1164      C1550   1.157       .  T
O1165     Zr1177   2.432       .  S
O1165      C1167   1.285       .  A
O1166     Zr1397   2.427   1_554  S
C1167      C1350   1.468       .  S
O1168     Zr1180   2.441       .  S
O1169     Zr1398   2.418       .  S
O1169      C1170   1.284   1_655  A
O1171     Zr1180   2.441       .  S
O1171      C1173   1.288       .  A
O1172     Zr1203   2.425       .  S
C1173      C1326   1.481       .  S
O1174     Zr1177   2.440       .  S
O1175     Zr1204   2.418       .  S
O1175      C1176   1.284       .  A
Zr1177     O1178   2.433       .  S
Zr1177     O1179   2.436       .  S
Zr1177     O1377   2.375       .  S
Zr1177     O1378   2.369       .  S
O1178      H1221   0.990       .  S
O1179      H1220   0.990       .  S
O1179      H1224   0.990       .  S
Zr1180     O1181   2.435       .  S
Zr1180     O1182   2.436       .  S
Zr1180     O1184   2.372       .  S
Zr1180     O1183   2.372       .  S
O1181      H1222   0.990       .  S
O1181      H1225   0.990       .  S
O1182      H1215   0.990       .  S
O1183     Zr1371   2.375       .  S
O1184     Zr1371   2.369       .  S
O1184      H1211   0.966       .  S
O1185     Zr1197   2.446       .  S
O1185      C1187   1.289       .  A
O1186     Zr1204   2.416       .  S
O1188     Zr1200   2.456       .  S
O1189     Zr1203   2.414       .  S
O1189      C1190   1.285       .  A
C1190      C1263   1.495       .  S
O1191     Zr1200   2.469       .  S
O1191      C1193   1.294       .  A
O1192     Zr1398   2.398       .  S
O1194     Zr1197   2.439       .  S
O1195     Zr1397   2.421   1_554  S
O1195      C1196   1.286       .  A
C1196      C1287   1.474       .  S
Zr1197     O1198   2.432       .  S
Zr1197     O1199   2.434       .  S
Zr1197     O1205   2.370   1_554  S
Zr1197     O1206   2.368   1_554  S
O1198      H1218   0.990       .  S
O1198      H1223   0.990       .  S
O1199      H1219   0.990       .  S
Zr1200     O1201   2.434       .  S
Zr1200     O1202   2.434       .  S
Zr1200     O1400   2.374       .  S
Zr1200     O1399   2.371       .  S
O1201      H1217   0.990       .  S
O1202      H1216   0.990       .  S
O1202      H1226   0.990       .  S
Zr1203     O1360   2.427       .  S
Zr1203     O1389   2.421       .  S
Zr1203     O1208   2.385       .  S
Zr1203     O1403   2.383       .  S
Zr1204     O1363   2.418   1_554  S
Zr1204     O1386   2.398   1_554  S
Zr1204     O1207   2.374       .  S
Zr1204     O1404   2.379   1_554  S
O1205     Zr1394   2.371       .  S
O1205      H1213   0.966       .  S
O1206     Zr1394   2.374       .  S
O1208      H1212   0.966       .  S
O1209     Zr1397   2.383   1_554  S
O1209      H1214   0.966       .  S
O1210     Zr1398   2.379       .  S
C1227      C1302   1.495       .  S
C1227      C1228   1.401       .  A
C1227      C1232   1.409       .  A
C1228      C1229   1.395       .  A
C1228      H1233   1.082       .  S
C1229      C1290   1.478       .  S
C1229      C1230   1.400       .  A
C1230      C1231   1.414       .  A
C1230      H1234   1.077       .  S
C1231      C1240   1.517       .  S
C1231      C1232   1.417       .  A
C1232      H1235   1.076       .  S
C1236      C1278   1.485       .  S
C1236      C1237   1.399       .  A
C1236      C1241   1.403       .  A
C1237      C1238   1.400       .  A
C1237      H1242   1.084       .  S
C1238      C1266   1.491       .  S
C1238      C1239   1.405       .  A
C1239      C1240   1.416       .  A
C1239      H1243   1.076       .  S
C1240      C1241   1.415       .  A
C1241      H1244   1.076       .  S
C1245      C1338   1.472       .  S
C1245      C1246   1.394       .  A
C1245      C1250   1.392       .  A
C1246      C1247   1.413       .  A
C1246      H1251   1.076       .  S
C1247      C1258   1.517       .  S
C1247      C1248   1.418       .  A
C1248      C1249   1.413       .  A
C1248      H1252   1.077       .  S
C1249      C1347   1.498       .  S
C1249      C1250   1.402       .  A
C1250      H1253   1.082       .  S
C1254      C1314   1.481       .  S
C1254      C1255   1.397       .  A
C1254      C1259   1.400       .  A
C1255      C1256   1.397       .  A
C1255      H1260   1.084       .  S
C1256      C1323   1.477       .  S
C1256      C1257   1.404       .  A
C1257      C1258   1.417       .  A
C1257      H1261   1.078       .  S
C1258      C1259   1.417       .  A
C1259      H1262   1.076       .  S
C1263      C1268   1.421       .  A
C1264      C1265   1.401       .  A
C1264      H1269   1.084       .  S
C1265      C1272   1.445       .  S
C1266      C1267   1.403       .  A
C1267      C1268   1.401       .  A
C1267      H1270   1.085       .  S
C1268      C1271   1.445       .  S
C1271      N1273   1.158       .  T
C1272      N1274   1.157       .  T
C1275      C1280   1.408       .  A
C1276      C1277   1.401       .  A
C1276      H1281   1.085       .  S
C1277      C1284   1.444       .  S
C1278      C1279   1.405       .  A
C1279      C1280   1.399       .  A
C1279      H1282   1.085       .  S
C1280      C1283   1.444       .  S
C1283      N1479   1.157       .  T
C1284      N1286   1.157       .  T
N1285      C1477   1.157       .  T
C1287      C1288   1.402       .  A
C1288      C1289   1.399       .  A
C1288      H1293   1.085       .  S
C1289      C1290   1.412       .  A
C1289      C1296   1.444       .  S
C1291      C1292   1.400       .  A
C1291      H1294   1.085       .  S
C1292      C1295   1.444       .  S
C1295      N1297   1.157       .  T
C1296      N1298   1.157       .  T
C1299      C1300   1.398       .  A
C1300      C1301   1.399       .  A
C1300      H1305   1.084       .  S
C1301      C1302   1.419       .  A
C1301      C1308   1.444       .  S
C1303      C1304   1.400       .  A
C1303      H1306   1.084       .  S
C1304      C1307   1.444       .  S
C1307      N1309   1.157       .  T
C1308      N1310   1.157       .  T
C1311      C1316   1.426       .  A
C1312      C1313   1.402       .  A
C1312      H1317   1.084       .  S
C1313      C1320   1.444       .  S
C1314      C1315   1.397       .  A
C1315      C1316   1.400       .  A
C1315      H1318   1.085       .  S
C1316      C1319   1.445       .  S
C1319      N1321   1.158       .  T
C1320      N1322   1.157       .  T
C1323      C1328   1.408       .  A
C1324      C1325   1.401       .  A
C1324      H1329   1.085       .  S
C1325      C1332   1.443       .  S
C1326      C1327   1.406       .  A
C1327      C1328   1.400       .  A
C1327      H1330   1.085       .  S
C1328      C1331   1.444       .  S
C1331      N1333   1.157       .  T
C1332      N1334   1.157       .  T
C1335      C1336   1.408       .  A
C1336      C1337   1.398       .  A
C1336      H1341   1.085       .  S
C1337      C1338   1.407       .  A
C1337      C1344   1.444       .  S
C1339      C1340   1.400       .  A
C1339      H1342   1.085       .  S
C1340      C1343   1.442       .  S
C1343      N1345   1.157       .  T
C1344      N1346   1.157       .  T
C1347      C1348   1.410   1_565  A
C1347      C1352   1.421       .  A
C1348      C1349   1.400       .  A
C1348      H1353   1.084       .  S
C1349      C1350   1.406   1_545  A
C1349      C1356   1.445       .  S
C1350      C1351   1.398       .  A
C1351      C1352   1.401       .  A
C1351      H1354   1.085       .  S
C1352      C1355   1.444       .  S
C1355      N1357   1.157       .  T
O1359     Zr1371   2.432       .  S
O1359      C1361   1.285       .  A
C1361      C1544   1.468       .  S
O1362     Zr1374   2.441       .  S
O1363      C1364   1.284   1_655  A
O1365     Zr1374   2.441       .  S
O1365      C1367   1.288       .  A
O1366     Zr1397   2.425       .  S
C1367      C1520   1.481       .  S
O1368     Zr1371   2.440       .  S
O1369     Zr1398   2.418       .  S
O1369      C1370   1.284       .  A
Zr1371     O1372   2.433       .  S
Zr1371     O1373   2.436       .  S
O1372      H1415   0.990       .  S
O1373      H1414   0.990       .  S
O1373      H1418   0.990       .  S
Zr1374     O1375   2.435       .  S
Zr1374     O1376   2.436       .  S
Zr1374     O1378   2.372   1_556  S
Zr1374     O1377   2.372   1_556  S
O1375      H1416   0.990       .  S
O1375      H1419   0.990       .  S
O1376      H1409   0.990       .  S
O1378      H1405   0.966       .  S
O1379     Zr1391   2.446       .  S
O1379      C1381   1.289       .  A
O1380     Zr1398   2.416       .  S
O1382     Zr1394   2.456       .  S
O1383     Zr1397   2.414       .  S
O1383      C1384   1.285       .  A
C1384      C1457   1.495       .  S
O1385     Zr1394   2.469       .  S
O1385      C1387   1.294       .  A
O1388     Zr1391   2.439       .  S
O1389      C1390   1.286       .  A
C1390      C1481   1.474       .  S
Zr1391     O1392   2.432       .  S
Zr1391     O1393   2.434       .  S
Zr1391     O1399   2.370       .  S
Zr1391     O1400   2.368       .  S
O1392      H1412   0.990       .  S
O1392      H1417   0.990       .  S
O1393      H1413   0.990       .  S
Zr1394     O1395   2.434       .  S
Zr1394     O1396   2.434       .  S
O1395      H1411   0.990       .  S
O1396      H1410   0.990       .  S
O1396      H1420   0.990       .  S
Zr1397     O1402   2.385       .  S
Zr1398     O1401   2.374       .  S
O1399      H1407   0.966       .  S
O1402      H1406   0.966       .  S
O1403      H1408   0.966       .  S
C1421      C1496   1.495       .  S
C1421      C1422   1.401       .  A
C1421      C1426   1.409       .  A
C1422      C1423   1.395       .  A
C1422      H1427   1.082       .  S
C1423      C1484   1.478       .  S
C1423      C1424   1.400       .  A
C1424      C1425   1.414       .  A
C1424      H1428   1.077       .  S
C1425      C1434   1.517       .  S
C1425      C1426   1.417       .  A
C1426      H1429   1.076       .  S
C1430      C1472   1.485       .  S
C1430      C1431   1.399       .  A
C1430      C1435   1.403       .  A
C1431      C1432   1.400       .  A
C1431      H1436   1.084       .  S
C1432      C1460   1.491       .  S
C1432      C1433   1.405       .  A
C1433      C1434   1.416       .  A
C1433      H1437   1.076       .  S
C1434      C1435   1.415       .  A
C1435      H1438   1.076       .  S
C1439      C1532   1.472       .  S
C1439      C1440   1.394       .  A
C1439      C1444   1.392       .  A
C1440      C1441   1.413       .  A
C1440      H1445   1.076       .  S
C1441      C1452   1.517       .  S
C1441      C1442   1.418       .  A
C1442      C1443   1.413       .  A
C1442      H1446   1.077       .  S
C1443      C1541   1.498       .  S
C1443      C1444   1.402       .  A
C1444      H1447   1.082       .  S
C1448      C1508   1.481       .  S
C1448      C1449   1.397       .  A
C1448      C1453   1.400       .  A
C1449      C1450   1.397       .  A
C1449      H1454   1.084       .  S
C1450      C1517   1.477       .  S
C1450      C1451   1.404       .  A
C1451      C1452   1.417       .  A
C1451      H1455   1.078       .  S
C1452      C1453   1.417       .  A
C1453      H1456   1.076       .  S
C1457      C1462   1.421       .  A
C1458      C1459   1.401       .  A
C1458      H1463   1.084       .  S
C1459      C1466   1.445       .  S
C1460      C1461   1.403       .  A
C1461      C1462   1.401       .  A
C1461      H1464   1.085       .  S
C1462      C1465   1.445       .  S
C1465      N1467   1.158       .  T
C1466      N1468   1.157       .  T
C1469      C1474   1.408       .  A
C1470      C1471   1.401       .  A
C1470      H1475   1.085       .  S
C1471      C1478   1.444       .  S
C1472      C1473   1.405       .  A
C1473      C1474   1.399       .  A
C1473      H1476   1.085       .  S
C1474      C1477   1.444       .  S
C1478      N1480   1.157       .  T
C1481      C1482   1.402       .  A
C1482      C1483   1.399       .  A
C1482      H1487   1.085       .  S
C1483      C1484   1.412       .  A
C1483      C1490   1.444       .  S
C1485      C1486   1.400       .  A
C1485      H1488   1.085       .  S
C1486      C1489   1.444       .  S
C1489      N1491   1.157       .  T
C1490      N1492   1.157       .  T
C1493      C1494   1.398       .  A
C1494      C1495   1.399       .  A
C1494      H1499   1.084       .  S
C1495      C1496   1.419       .  A
C1495      C1502   1.444       .  S
C1497      C1498   1.400       .  A
C1497      H1500   1.084       .  S
C1498      C1501   1.444       .  S
C1501      N1503   1.157       .  T
C1502      N1504   1.157       .  T
C1505      C1510   1.426       .  A
C1506      C1507   1.402       .  A
C1506      H1511   1.084       .  S
C1507      C1514   1.444       .  S
C1508      C1509   1.397       .  A
C1509      C1510   1.400       .  A
C1509      H1512   1.085       .  S
C1510      C1513   1.445       .  S
C1513      N1515   1.158       .  T
C1514      N1516   1.157       .  T
C1517      C1522   1.408       .  A
C1518      C1519   1.401       .  A
C1518      H1523   1.085       .  S
C1519      C1526   1.443       .  S
C1520      C1521   1.406       .  A
C1521      C1522   1.400       .  A
C1521      H1524   1.085       .  S
C1522      C1525   1.444       .  S
C1525      N1527   1.157       .  T
C1526      N1528   1.157       .  T
C1529      C1530   1.408       .  A
C1530      C1531   1.398       .  A
C1530      H1535   1.085       .  S
C1531      C1532   1.407       .  A
C1531      C1538   1.444       .  S
C1533      C1534   1.400       .  A
C1533      H1536   1.085       .  S
C1534      C1537   1.442       .  S
C1537      N1539   1.157       .  T
C1538      N1540   1.157       .  T
C1541      C1542   1.410   1_565  A
C1541      C1546   1.421       .  A
C1542      C1543   1.400       .  A
C1542      H1547   1.084       .  S
C1543      C1544   1.406   1_545  A
C1543      C1550   1.445       .  S
C1544      C1545   1.398       .  A
C1545      C1546   1.401       .  A
C1545      H1548   1.085       .  S
C1546      C1549   1.444       .  S
C1549      N1551   1.157       .  T
