geometry optimzed in LAMMPS
_audit_creation_date              2020-11-30 
_audit_creation_method            'lammps2cif' 
_symmetry_space_group_name_H-M    'P1' 
_symmetry_Int_Tables_number       1 
_symmetry_cell_setting            triclinic 
loop_ 
_symmetry_equiv_pos_as_xyz 
  x,y,z 
_cell_length_a                    27.136230349669116 
_cell_length_b                    68.41064333055219 
_cell_length_c                    44.49011909644331 
_cell_angle_alpha                 90.1405588322267 
_cell_angle_beta                  90.02455729876722 
_cell_angle_gamma                 90.03822890953928 
loop_ 
_atom_site_label 
_atom_site_type_symbol 
_atom_site_fract_x 
_atom_site_fract_y 
_atom_site_fract_z 
_atom_site_charge 
O1          O  0.45918711  0.97014061  0.49991179    -0.73230
O2          O  0.45758387  0.02874776  0.49997332    -0.74210
O3          O  0.45832713  0.99934899  0.45481796    -0.62830
O4          O  0.45853169  0.99951778  0.04504237    -0.71240
O5          O  0.53991898  0.99972248  0.04498696    -0.70800
O6          O  0.53977926  0.99993155  0.45473978    -0.62050
O7          O  0.53908842  0.02909744  0.00006009    -0.74560
O8          O  0.54084346  0.97053723  0.99945483    -0.73340
Cu9        Cu  0.45558482  0.99942728  0.49994790     1.04560
Cu10       Cu  0.54272117  0.99983606  0.99983278     1.04330
C11         C  0.50030519  0.96105627  0.49933442     0.92960
C12         C  0.49806051  0.03826107  0.99990742     0.92100
C13         C  0.49906056  0.99954542  0.44037500     0.84250
C14         C  0.49930900  0.99965532  0.05945824     0.90520
O15         O  0.45026766  0.97059811  0.25005281    -0.73230
O16         O  0.45207899  0.02926191  0.25007834    -0.74210
O17         O  0.45129204  0.99989417  0.20492446    -0.62830
O18         O  0.45131059  0.99997777  0.29517269    -0.71240
O19         O  0.53274870  0.99972670  0.29515240    -0.70800
O20         O  0.53266508  0.99947048  0.20493342    -0.62050
O21         O  0.53365004  0.02896527  0.25001893    -0.74560
O22         O  0.53165751  0.97018395  0.25008741    -0.73340
Cu23       Cu  0.44844548  0.99994513  0.25005411     1.04560
Cu24       Cu  0.53550229  0.99956764  0.25004689     1.04330
C25         C  0.49057316  0.96100060  0.25001354     0.92960
C26         C  0.49311649  0.03844565  0.25020075     0.92100
C27         C  0.49192087  0.99964566  0.19048562     0.84250
C28         C  0.49200578  0.99996935  0.30957456     0.90520
N29         N  0.42338319  0.22247014  0.00134281    -0.27580
N30         N  0.40058475  0.20560743  0.00548566    -0.35440
C31         C  0.35166862  0.20865482  0.00600549     0.00760
C32         C  0.34296649  0.22836845  0.00154068     0.06790
C33         C  0.38939237  0.23670267  0.99906605    -0.06310
H34         H  0.32462228  0.19731586  0.00980951     0.07450
H35         H  0.39782991  0.25199271  0.99562945     0.08650
Cu36       Cu  0.43609059  0.17892830  0.00857617     0.44170
Cu37       Cu  0.49964376  0.22527377  0.99868015     0.41990
Cu38       Cu  0.56512213  0.17940394  0.99062810     0.43880
N39         N  0.47809865  0.15384424  0.00437938    -0.34970
N40         N  0.52498696  0.15402022  0.99648097    -0.29220
C41         C  0.54124513  0.13552930  0.99426491    -0.05320
C42         C  0.50293612  0.12303483  0.00168117     0.06900
C43         C  0.46331478  0.13522250  0.00762638     0.00690
H44         H  0.57799770  0.13159621  0.98711950     0.08340
H45         H  0.42631499  0.13088148  0.01375593     0.07420
N46         N  0.59955705  0.20630962  0.99318775    -0.36410
N47         N  0.57606670  0.22309130  0.99656805    -0.28590
C48         C  0.60952058  0.23754938  0.99897794    -0.03830
C49         C  0.65625053  0.22941129  0.99746988     0.04780
C50         C  0.64836349  0.20960549  0.99337946     0.02870
H51         H  0.60052672  0.25283006  0.00202699     0.07980
H52         H  0.67594613  0.19835520  0.99050099     0.06810
N53         N  0.56567203  0.22347744  0.25099746    -0.27580
N54         N  0.58984236  0.20671966  0.25150767    -0.35440
C55         C  0.63846757  0.21043952  0.25205968     0.00760
C56         C  0.64542737  0.23052015  0.25196563     0.06790
C57         C  0.59828400  0.23827885  0.25087288    -0.06310
H58         H  0.66673541  0.19929574  0.25224319     0.07450
H59         H  0.58812602  0.25350137  0.24907222     0.08650
Cu60       Cu  0.55611725  0.17949610  0.25012028     0.44170
Cu61       Cu  0.48954952  0.22563433  0.25039180     0.41990
Cu62       Cu  0.42330598  0.17975429  0.25154371     0.43880
N63         N  0.51358627  0.15427884  0.24936558    -0.34970
N64         N  0.46500872  0.15441812  0.25100073    -0.29220
C65         C  0.44843247  0.13590418  0.25119489    -0.05320
C66         C  0.48841132  0.12336658  0.24874234     0.06580
C67         C  0.52915865  0.13564341  0.24798556     0.00690
H68         H  0.41006052  0.13202763  0.25369724     0.08340
H69         H  0.56745615  0.13136109  0.24650050     0.07420
N70         N  0.38934266  0.20682336  0.24972912    -0.36410
N71         N  0.41340199  0.22361197  0.24987048    -0.28590
C72         C  0.38066814  0.23835950  0.24969072    -0.03830
C73         C  0.33357318  0.23048861  0.24877646     0.04780
C74         C  0.34071294  0.21043069  0.24908245     0.02870
H75         H  0.39070098  0.25361980  0.25118343     0.07980
H76         H  0.31256869  0.19922116  0.24910930     0.06810
N77         N  0.57599895  0.77708977  0.00563401    -0.27580
N78         N  0.59971988  0.79371294  0.00125397    -0.35440
C79         C  0.64814884  0.79002468  0.99880491     0.00760
C80         C  0.65543796  0.77008290  0.00153812     0.06790
C81         C  0.60882067  0.76237929  0.00626047    -0.06310
H82         H  0.67601416  0.80107817  0.99509954     0.07450
H83         H  0.59925897  0.74727511  0.01031737     0.08650
Cu84       Cu  0.56580137  0.82071804  0.99886499     0.44170
Cu85       Cu  0.49994825  0.77501080  0.00865802     0.41990
Cu86       Cu  0.43375331  0.82003237  0.99353974     0.43880
N87         N  0.52325645  0.84576018  0.99760181    -0.34970
N88         N  0.47475145  0.84551474  0.99520928    -0.29220
C89         C  0.45795065  0.86398922  0.99537132    -0.05320
C90         C  0.49780804  0.87649629  0.99849230     0.06900
C91         C  0.53865866  0.86439348  0.99945743     0.00690
H92         H  0.41956453  0.86793776  0.99302972     0.08340
H93         H  0.57679519  0.86879561  0.00171060     0.07420
N94         N  0.40035006  0.79295603  0.99731851    -0.36410
N95         N  0.42407129  0.77665153  0.00387142    -0.28590
C96         C  0.39140999  0.76190123  0.00556740    -0.03830
C97         C  0.34490084  0.76921536  0.99927880     0.04780
C98         C  0.35209180  0.78900496  0.99449785     0.02870
H99         H  0.40098530  0.74707270  0.01150070     0.07980
H100        H  0.32423919  0.79978934  0.98929364     0.06810
N101        N  0.56676869  0.77571539  0.24409659    -0.27580
N102        N  0.59043818  0.79228407  0.23921568    -0.35440
C103        C  0.63911600  0.78868478  0.23840392     0.00760
C104        C  0.64654035  0.76884969  0.24275854     0.06790
C105        C  0.59972762  0.76114307  0.24659688    -0.06310
H106        H  0.66714667  0.79978987  0.23563533     0.07450
H107        H  0.59024897  0.74624056  0.25221002     0.08650
Cu108      Cu  0.55580469  0.81926631  0.23731542     0.44170
Cu109      Cu  0.49104295  0.77395032  0.24901424     0.41990
Cu110      Cu  0.42721796  0.81995052  0.25960954     0.43880
N111        N  0.51567920  0.84467613  0.24416080    -0.34970
N112        N  0.46970119  0.84496076  0.25388672    -0.29220
C113        C  0.45572997  0.86364886  0.25782078    -0.05320
C114        C  0.49478865  0.87582256  0.25027812     0.06900
C115        C  0.53187231  0.86314688  0.24122686     0.00690
H116        H  0.41960656  0.86803503  0.26558583     0.08340
H117        H  0.56774485  0.86688647  0.23244338     0.07420
N118        N  0.39207283  0.79295263  0.25839336    -0.36410
N119        N  0.41541081  0.77624669  0.25395255    -0.28590
C120        C  0.38222377  0.76169714  0.25214250    -0.03830
C121        C  0.33557955  0.76951899  0.25605101     0.04780
C122        C  0.34334575  0.78942806  0.25966053     0.02870
H123        H  0.39147062  0.74668900  0.24700782     0.07980
H124        H  0.31550929  0.80061088  0.26234927     0.06810
N125        N  0.92371487  0.72373913  0.99672791    -0.27580
N126        N  0.89997180  0.70738738  0.00305250    -0.35440
C127        C  0.85169400  0.71127789  0.00581600     0.00760
C128        C  0.84460041  0.73107988  0.00135103     0.06790
C129        C  0.89107569  0.73849476  0.99530829    -0.06310
H130        H  0.82376566  0.70045425  0.01073911     0.07450
H131        H  0.90054504  0.75340537  0.98973348     0.08650
Cu132      Cu  0.93340662  0.68036407  0.00679339     0.44170
Cu133      Cu  0.99948896  0.72530560  0.99138036     0.41990
Cu134      Cu  0.06535326  0.67950082  0.00101024     0.43880
N135        N  0.97399202  0.65483750  0.00500563    -0.34970
N136        N  0.02242233  0.65447499  0.00221080    -0.29220
C137        C  0.03733985  0.63578957  0.00012268    -0.05320
C138        C  0.99623161  0.62377821  0.00142698     0.06900
C139        C  0.95678656  0.63641858  0.00499273     0.00690
H140        H  0.07532644  0.63128917  0.99753859     0.08340
H141        H  0.91839044  0.63261870  0.00780170     0.07420
N142        N  0.09925932  0.70658368  0.99861189    -0.36410
N143        N  0.07555732  0.72316128  0.99392604    -0.28590
C144        C  0.10836268  0.73788553  0.99303210    -0.03830
C145        C  0.15501627  0.73029559  0.99808795     0.04780
C146        C  0.14765859  0.71035116  0.00117972     0.02870
H147        H  0.09865329  0.75290919  0.98855195     0.07980
H148        H  0.17545562  0.69933793  0.00523098     0.06810
N149        N  0.91530709  0.72386018  0.25596310    -0.27580
N150        N  0.89184715  0.70719970  0.26049177    -0.35440
C151        C  0.84313152  0.71070430  0.26147858     0.00760
C152        C  0.83544544  0.73056696  0.25758486     0.06790
C153        C  0.88216018  0.73839018  0.25383907    -0.06310
H154        H  0.81524986  0.69951919  0.26403938     0.07450
H155        H  0.89145301  0.75335555  0.24851655     0.08650
Cu156      Cu  0.92672425  0.68024476  0.26174459     0.44170
Cu157      Cu  0.99102273  0.72588957  0.25103060     0.41990
Cu158      Cu  0.05575229  0.68012523  0.24060352     0.43880
N159        N  0.96761164  0.65500194  0.25505724    -0.34970
N160        N  0.01398789  0.65493935  0.24603328    -0.29220
C161        C  0.02877025  0.63632764  0.24237984    -0.05320
C162        C  0.98978950  0.62399277  0.24928285     0.06900
C163        C  0.95187050  0.63644921  0.25769170     0.00690
H164        H  0.06534994  0.63209431  0.23522619     0.08340
H165        H  0.91571041  0.63246866  0.26579705     0.07420
N166        N  0.09031969  0.70720571  0.24162369    -0.36410
N167        N  0.06672231  0.72385770  0.24601273    -0.28590
C168        C  0.09971062  0.73848878  0.24774235    -0.03830
C169        C  0.14647024  0.73075857  0.24384555     0.04780
C170        C  0.13897497  0.71083387  0.24030106     0.02870
H171        H  0.09026976  0.75348216  0.25284723     0.07980
H172        H  0.16695630  0.69970289  0.23766290     0.06810
N173        N  0.07632035  0.27629375  0.00190467    -0.27580
N174        N  0.09982107  0.29321127  0.00113847    -0.35440
C175        C  0.14859323  0.28995213  0.00094894     0.00760
C176        C  0.15670936  0.27000340  0.00254781     0.06790
C177        C  0.10985706  0.26179619  0.00267638    -0.06310
H178        H  0.17588269  0.30139631  0.99916309     0.07450
H179        H  0.10078851  0.24640503  0.00346073     0.08650
Cu180      Cu  0.06593407  0.32027334  0.00150513     0.44170
Cu181      Cu  0.99971511  0.27394394  0.00121431     0.41990
Cu182      Cu  0.93481767  0.32073047  0.99905448     0.43880
N183        N  0.02521942  0.34579945  0.00088041    -0.34970
N184        N  0.97678003  0.34596385  0.99859685    -0.29220
C185        C  0.96125136  0.36457582  0.99713681    -0.05320
C186        C  0.00193897  0.37687492  0.99870020     0.06900
C187        C  0.04181941  0.36429975  0.00163240     0.00690
H188        H  0.92299040  0.36879852  0.99508760     0.08340
H189        H  0.08006224  0.36807629  0.00495717     0.07420
N190        N  0.90021492  0.29379267  0.99975202    -0.36410
N191        N  0.92323828  0.27676792  0.99986636    -0.28590
C192        C  0.88931924  0.26239776  0.99913290    -0.03830
C193        C  0.84275849  0.27078983  0.99831397     0.04780
C194        C  0.85134297  0.29072564  0.99929972     0.02870
H195        H  0.89793600  0.24696079  0.99895830     0.07980
H196        H  0.82425731  0.30228504  0.00017318     0.06810
N197        N  0.06514544  0.27662802  0.25458804    -0.27580
N198        N  0.08912433  0.29329747  0.25799285    -0.35440
C199        C  0.13772439  0.28962845  0.25909441     0.00760
C200        C  0.14475923  0.26965107  0.25651004     0.06790
C201        C  0.09785641  0.26189797  0.25336320    -0.06310
H202        H  0.16593796  0.30073625  0.26115183     0.07450
H203        H  0.08813337  0.24678514  0.24935110     0.08650
Cu204      Cu  0.05503823  0.32034743  0.25860075     0.44170
Cu205      Cu  0.98929393  0.27484460  0.25056009     0.41990
Cu206      Cu  0.92408045  0.32093127  0.24319693     0.43880
N207        N  0.01443304  0.34570582  0.25330500    -0.34970
N208        N  0.96689021  0.34598557  0.24689537    -0.29220
C209        C  0.95226351  0.36467027  0.24402500    -0.05320
C210        C  0.99264724  0.37675330  0.24856916     0.06900
C211        C  0.03124530  0.36416064  0.25482277     0.00690
H212        H  0.91493074  0.36913374  0.23895941     0.08340
H213        H  0.06868456  0.36803233  0.26066549     0.07420
N214        N  0.88972592  0.29380869  0.24355216    -0.36410
N215        N  0.91350718  0.27707721  0.24661584    -0.28590
C216        C  0.88066345  0.26237456  0.24745886    -0.03830
C217        C  0.83384586  0.27015896  0.24436686     0.04780
C218        C  0.84107605  0.29016203  0.24225924     0.02870
H219        H  0.89027355  0.24723724  0.25116860     0.07980
H220        H  0.81295725  0.30129441  0.24033388     0.06810
O221        O  0.95581279  0.53000447  0.99994741    -0.73230
O222        O  0.95419915  0.47124361  0.99920859    -0.74210
O223        O  0.95353231  0.50046331  0.04458098    -0.62830
O224        O  0.95606372  0.50080834  0.45452155    -0.71240
O225        O  0.03749901  0.50030684  0.45527261    -0.70800
O226        O  0.03491091  0.50032854  0.04563665    -0.62050
O227        O  0.03571427  0.47107590  0.00036487    -0.74560
O228        O  0.03741317  0.52956115  0.00067357    -0.73340
Cu229      Cu  0.95207973  0.50064039  0.99952026     1.04560
Cu230      Cu  0.03919471  0.50030375  0.50049817     1.04330
C231        C  0.99700012  0.53908528  0.00068684     0.92960
C232        C  0.99480814  0.46182419  0.99987432     0.92100
C233        C  0.99364731  0.50042094  0.05953847     0.84250
C234        C  0.99715115  0.50064223  0.44048864     0.90520
O235        O  0.95443411  0.52979900  0.24967559    -0.73230
O236        O  0.95159684  0.47120069  0.24978923    -0.74210
O237        O  0.95209865  0.50060643  0.29488860    -0.62830
O238        O  0.95449829  0.50036569  0.20452350    -0.71240
O239        O  0.03585955  0.49991630  0.20550398    -0.70800
O240        O  0.03352619  0.49994600  0.29556435    -0.62050
O241        O  0.03313497  0.47057109  0.25048273    -0.74560
O242        O  0.03584819  0.52934996  0.25054184    -0.73340
Cu243      Cu  0.95034352  0.50051861  0.24968593     1.04560
Cu244      Cu  0.03739564  0.49993043  0.25055028     1.04330
C245        C  0.99551218  0.53895209  0.25016333     0.92960
C246        C  0.99183179  0.46155619  0.25032536     0.92100
C247        C  0.99247242  0.50018547  0.30963270     0.84250
C248        C  0.99572018  0.50007845  0.19058031     0.90520
C249        C  0.03682596  0.50435759  0.35822171    -0.09450
C250        C  0.99249111  0.50017298  0.34311245     0.06750
C251        C  0.95006636  0.49608296  0.36048577    -0.03210
C252        C  0.95285612  0.49640864  0.39188614    -0.07660
C253        C  0.99717848  0.50061874  0.40700132     0.05870
C254        C  0.03963870  0.50464780  0.38962255    -0.02690
Br255      Br  0.10262656  0.51135374  0.40654744    -0.02380
H256        H  0.06983911  0.50766593  0.34552585     0.09780
H257        H  0.91984642  0.49308593  0.40457548     0.07800
Br258      Br  0.88722453  0.48916926  0.34354250    -0.02810
C259        C  0.95145095  0.50210372  0.14161397    -0.09450
C260        C  0.99637913  0.50005001  0.15705202     0.06750
C261        C  0.04011361  0.49809971  0.13991214    -0.03210
C262        C  0.03786132  0.49831697  0.10849868    -0.07660
C263        C  0.99293968  0.50038006  0.09306188     0.05870
C264        C  0.94919668  0.50230446  0.11019667    -0.02690
Br265      Br  0.88465818  0.50560070  0.09307621    -0.02380
H266        H  0.91737500  0.50368915  0.15405339     0.09780
H267        H  0.07193968  0.49673694  0.09605954     0.07800
Br268      Br  0.10465574  0.49475694  0.15700879    -0.02810
C269        C  0.95222968  0.40843555  0.26031273    -0.09450
C270        C  0.99310078  0.39843284  0.24857340     0.06750
C271        C  0.03304560  0.40938632  0.23717855    -0.03210
C272        C  0.03182081  0.42981376  0.23833555    -0.07660
C273        C  0.99106270  0.43985599  0.25021091     0.05870
C274        C  0.95081937  0.42887623  0.26130359    -0.02690
Br275      Br  0.89381628  0.44054020  0.27962064    -0.02380
H276        H  0.92138749  0.40028684  0.26935225     0.09780
H277        H  0.06265580  0.43791617  0.22918032     0.07800
Br278      Br  0.08859236  0.39767926  0.21739736    -0.02810
C279        C  0.03785965  0.43056859  0.48922955    -0.09450
C280        C  0.99533777  0.44011753  0.99964943     0.06750
C281        C  0.95516177  0.42865298  0.00948553    -0.03210
C282        C  0.95869760  0.40825014  0.00915826    -0.07660
C283        C  0.00126369  0.39865482  0.99873202     0.05870
C284        C  0.04101240  0.41017944  0.48824413    -0.02690
Br285      Br  0.09923478  0.39969426  0.46974952    -0.02380
H286        H  0.06873177  0.43904888  0.48096674     0.09780
H287        H  0.92778875  0.39986005  0.01750881     0.07800
Br288      Br  0.89489153  0.43956591  0.02474005    -0.02810
C289        C  0.03458436  0.59259963  0.25627567    -0.09450
C290        C  0.99040829  0.60225076  0.24918766     0.06750
C291        C  0.94861400  0.59086538  0.24186826    -0.03210
C292        C  0.95145143  0.57046046  0.24262235    -0.07660
C293        C  0.99550828  0.56074102  0.24995835     0.05870
C294        C  0.03767267  0.57216825  0.25664064    -0.02690
Br295      Br  0.10063335  0.56132097  0.26722258    -0.02380
H296        H  0.06710200  0.60101420  0.26199267     0.09780
H297        H  0.91885005  0.56213537  0.23675361     0.07800
Br298      Br  0.88751959  0.60179721  0.22805746    -0.02810
C299        C  0.95901421  0.57085959  0.48704550    -0.09450
C300        C  0.99759401  0.56073302  0.00113189     0.06750
C301        C  0.03572150  0.57155867  0.01503024    -0.03210
C302        C  0.03437346  0.59198793  0.01467515    -0.07660
C303        C  0.99568657  0.60211582  0.00070697     0.05870
C304        C  0.95797413  0.59129544  0.48640079    -0.02690
Br305      Br  0.90632373  0.60318820  0.46329776    -0.02380
H306        H  0.92997640  0.56281599  0.47574224     0.09780
H307        H  0.06347749  0.60001736  0.02592503     0.07800
Br308      Br  0.08932183  0.55960936  0.03641113    -0.02810
C309        C  0.24845257  0.76894726  0.23883067    -0.09450
C310        C  0.28743013  0.75937026  0.25343998     0.06750
C311        C  0.27943881  0.74037992  0.26483984    -0.03210
C312        C  0.23350313  0.73139208  0.26115740    -0.07660
C313        C  0.19453568  0.74095957  0.24652976     0.05870
C314        C  0.20250721  0.75995364  0.23514369    -0.02690
Br315      Br  0.15398620  0.77393684  0.21230669    -0.02380
H316        H  0.25405777  0.78338970  0.22950908     0.09780
H317        H  0.22791191  0.71695000  0.27048337     0.07800
Br318      Br  0.32791717  0.72637285  0.28768120    -0.02810
C319        C  0.73293327  0.76851136  0.26122178    -0.09450
C320        C  0.69453472  0.75876309  0.24621479     0.06750
C321        C  0.70298088  0.73970892  0.23511344    -0.03210
C322        C  0.74888290  0.73083812  0.23937751    -0.07660
C323        C  0.78731853  0.74059725  0.25434223     0.05870
C324        C  0.77881887  0.75963366  0.26551636    -0.02690
Br325      Br  0.82652708  0.77382816  0.28881771    -0.02380
H326        H  0.72691005  0.78301095  0.27033664     0.09780
H327        H  0.75489372  0.71634451  0.23024016     0.07800
Br328      Br  0.65515914  0.72549059  0.21193485    -0.02810
C329        C  0.25529583  0.76862690  0.01015280    -0.09450
C330        C  0.29697943  0.75880937  0.99911566     0.06750
C331        C  0.29138315  0.73963857  0.48780079    -0.03210
C332        C  0.24489829  0.73081204  0.48778330    -0.07660
C333        C  0.20311961  0.74063602  0.99874637     0.05870
C334        C  0.20884652  0.75976885  0.01030535    -0.02690
Br335      Br  0.15647421  0.77428438  0.02886595    -0.02380
H336        H  0.25899259  0.78322503  0.01937453     0.09780
H337        H  0.24131863  0.71623435  0.47848563     0.07800
Br338      Br  0.34426298  0.72506707  0.46990291    -0.02810
C339        C  0.75584142  0.73216791  0.48837025    -0.09450
C340        C  0.79681173  0.74145917  0.00135302     0.06750
C341        C  0.79079178  0.76014470  0.01431038    -0.03210
C342        C  0.74449899  0.76909173  0.01397099    -0.07660
C343        C  0.70343150  0.75978851  0.00106461     0.05870
C344        C  0.70959596  0.74115309  0.48786862    -0.02690
Br345      Br  0.65804886  0.72772181  0.46663648    -0.02380
H346        H  0.76003034  0.71794372  0.47792201     0.09780
H347        H  0.74041088  0.78329639  0.02448542     0.07800
Br348      Br  0.84287833  0.77367532  0.03488244    -0.02810
C349        C  0.73221853  0.23231078  0.23453016    -0.09450
C350        C  0.69328168  0.24099026  0.25051331     0.06750
C351        C  0.70132097  0.25927217  0.26455870    -0.03210
C352        C  0.74713550  0.26849761  0.26191068    -0.07660
C353        C  0.78598538  0.25979005  0.24594148     0.05870
C354        C  0.77810852  0.24147170  0.23209021    -0.02690
Br355      Br  0.82680178  0.22871541  0.20766684    -0.02380
H356        H  0.72671313  0.21843411  0.22324534     0.09780
H357        H  0.75280309  0.28239444  0.27312238     0.07800
Br358      Br  0.65340844  0.27186079  0.28975139    -0.02810
C359        C  0.24675423  0.23208755  0.26614283    -0.09450
C360        C  0.28556038  0.24081887  0.25013095     0.06750
C361        C  0.27719158  0.25898209  0.23595193    -0.03210
C362        C  0.23123528  0.26807624  0.23859241    -0.07660
C363        C  0.19257803  0.25933000  0.25465070     0.05870
C364        C  0.20070788  0.24109834  0.26852198    -0.02690
Br365      Br  0.15211914  0.22829130  0.29289196    -0.02380
H366        H  0.25247017  0.21829368  0.27750766     0.09780
H367        H  0.22532368  0.28190970  0.22735750     0.07800
Br368      Br  0.32483363  0.27157277  0.21063524    -0.02810
C369        C  0.70858421  0.25751577  0.48270327    -0.09450
C370        C  0.70401974  0.23987346  0.99842785     0.06750
C371        C  0.74522586  0.23259567  0.01422319    -0.03210
C372        C  0.78982148  0.24287734  0.01371325    -0.07660
C373        C  0.79456643  0.26049629  0.99782559     0.05870
C374        C  0.75324604  0.26772585  0.48195782    -0.02690
Br375      Br  0.75562584  0.29036242  0.45655612    -0.02380
H376        H  0.67750652  0.26312926  0.47009887     0.09780
H377        H  0.82078801  0.23720904  0.02634632     0.07800
Br378      Br  0.74242693  0.20954497  0.03871222    -0.02810
C379        C  0.20818054  0.24138358  0.48806571    -0.09450
C380        C  0.20470078  0.25953719  0.00275472     0.06750
C381        C  0.24712458  0.26713943  0.01715165    -0.03210
C382        C  0.29155438  0.25681899  0.01600924    -0.07660
C383        C  0.29496187  0.23870103  0.00135956     0.05870
C384        C  0.25258900  0.23098370  0.48719069    -0.02690
Br385      Br  0.25331045  0.20712913  0.46436268    -0.02380
H386        H  0.17635396  0.23537614  0.47659389     0.09780
H387        H  0.32348232  0.26278738  0.02744247     0.07800
Br388      Br  0.24692511  0.29053967  0.04108601    -0.02810
C389        C  0.52926737  0.09188136  0.26145752    -0.09450
C390        C  0.48877672  0.10161036  0.24865092     0.06750
C391        C  0.45041917  0.09026464  0.23594684    -0.03210
C392        C  0.45265458  0.06985083  0.23712755    -0.07660
C393        C  0.49304516  0.06014932  0.25000729     0.05870
C394        C  0.53189714  0.07145162  0.26213396    -0.02690
Br395      Br  0.58861040  0.06019774  0.28129017    -0.02380
H396        H  0.55900758  0.10020774  0.27148745     0.09780
H397        H  0.42296703  0.06146910  0.22710745     0.07800
Br398      Br  0.39591612  0.10119086  0.21417959    -0.02810
C399        C  0.53502603  0.92932571  0.25523292    -0.09450
C400        C  0.49034926  0.93918715  0.25008220     0.06750
C401        C  0.44725529  0.92785945  0.24543775    -0.03210
C402        C  0.45007321  0.90742524  0.24546767    -0.07660
C403        C  0.49480095  0.89760793  0.25043133     0.05870
C404        C  0.53759445  0.90889879  0.25582929    -0.02690
Br405      Br  0.60011474  0.89790359  0.26685469    -0.02380
H406        H  0.56842370  0.93755537  0.25952853     0.09780
H407        H  0.41673694  0.89914882  0.24126344     0.07800
Br408      Br  0.38298620  0.93878024  0.23851977    -0.02810
C409        C  0.45396622  0.00395041  0.39213424    -0.09450
C410        C  0.49839895  0.99953896  0.40690444     0.06750
C411        C  0.54041205  0.99529069  0.38921452    -0.03210
C412        C  0.53708856  0.99561943  0.35783996    -0.07660
C413        C  0.49265016  0.00002208  0.34305804     0.05870
C414        C  0.45064071  0.00428403  0.36075562    -0.02690
Br415      Br  0.38761895  0.01138374  0.34433553    -0.02380
H416        H  0.42131126  0.00742033  0.40508669     0.09780
H417        H  0.56976343  0.99215344  0.34490602     0.07800
Br418      Br  0.60340997  0.98818043  0.40565594    -0.02810
C419        C  0.53831936  0.00075495  0.14219044    -0.09450
C420        C  0.49255458  0.99962767  0.15694469     0.06750
C421        C  0.44935620  0.99853055  0.13913513    -0.03210
C422        C  0.45294474  0.99858336  0.10776259    -0.07660
C423        C  0.49870945  0.99969584  0.09300357     0.05870
C424        C  0.54190698  0.00081767  0.11081438    -0.02690
Br425      Br  0.60748044  0.00266105  0.09469630    -0.02380
H426        H  0.57205573  0.00166992  0.15514150     0.09780
H427        H  0.41919927  0.99767792  0.09481934     0.07800
Br428      Br  0.38377705  0.99670119  0.15525336    -0.02810
C429        C  0.45967665  0.09167330  0.49196965    -0.09450
C430        C  0.50257863  0.10136733  0.00147560     0.06750
C431        C  0.54343249  0.09012113  0.01074475    -0.03210
C432        C  0.54094175  0.06972432  0.00974088    -0.07660
C433        C  0.49811259  0.05997122  0.00010786     0.05870
C434        C  0.45697467  0.07126264  0.49118638    -0.02690
Br435      Br  0.39645583  0.06018968  0.47647631    -0.02380
H436        H  0.42804111  0.10004030  0.48460006     0.09780
H437        H  0.57262755  0.06143052  0.01723637     0.07800
Br438      Br  0.60233074  0.10131511  0.02745012    -0.02810
C439        C  0.46309779  0.92941872  0.01425864    -0.09450
C440        C  0.50056214  0.93944683  0.99894083     0.06750
C441        C  0.53709457  0.92858191  0.48370672    -0.03210
C442        C  0.53540644  0.90815744  0.48403327    -0.07660
C443        C  0.49780820  0.89812671  0.99923225     0.05870
C444        C  0.46167054  0.90899273  0.01481283    -0.02690
Br445      Br  0.41191682  0.89709829  0.03941092    -0.02380
H446        H  0.43529903  0.93753164  0.02652642     0.09780
H447        H  0.56325798  0.90005662  0.47180263     0.07800
Br448      Br  0.58848269  0.94055819  0.46045110    -0.02810
O449        O  0.45918636  0.97014074  0.99991175    -0.73230
O450        O  0.45758358  0.02874789  0.99997334    -0.74210
O451        O  0.45832663  0.99934912  0.95481794    -0.62830
O452        O  0.45853220  0.99951767  0.54504236    -0.71240
O453        O  0.53991949  0.99972245  0.54498698    -0.70800
O454        O  0.53977875  0.99993160  0.95473979    -0.62050
O455        O  0.53908871  0.02909739  0.50006008    -0.74560
O456        O  0.54084421  0.97053718  0.49945486    -0.73340
Cu457      Cu  0.45558430  0.99942741  0.99994790     1.04560
Cu458      Cu  0.54272169  0.99983602  0.49983278     1.04330
C459        C  0.50030438  0.96105635  0.99933436     0.92960
C460        C  0.49806075  0.03826098  0.49990742     0.92100
C461        C  0.49906007  0.99954550  0.94037499     0.84250
C462        C  0.49930949  0.99965526  0.55945824     0.90520
O463        O  0.45026766  0.97059811  0.75005275    -0.73230
O464        O  0.45207899  0.02926192  0.75007830    -0.74210
O465        O  0.45129219  0.99989417  0.70492441    -0.62830
O466        O  0.45131043  0.99997777  0.79517263    -0.71240
O467        O  0.53274855  0.99972670  0.79515243    -0.70800
O468        O  0.53266523  0.99947049  0.70493345    -0.62050
O469        O  0.53365004  0.02896527  0.75001897    -0.74560
O470        O  0.53165751  0.97018395  0.75008744    -0.73340
Cu471      Cu  0.44844548  0.99994513  0.75005406     1.04560
Cu472      Cu  0.53550229  0.99956764  0.75004693     1.04330
C473        C  0.49057317  0.96100061  0.75001352     0.92960
C474        C  0.49311649  0.03844566  0.75020075     0.92100
C475        C  0.49192106  0.99964566  0.69048562     0.84250
C476        C  0.49200558  0.99996935  0.80957455     0.90520
N477        N  0.42338313  0.22247005  0.50134287    -0.27580
N478        N  0.40058469  0.20560735  0.50548574    -0.35440
C479        C  0.35166857  0.20865473  0.50600557     0.00760
C480        C  0.34296644  0.22836836  0.50154073     0.06790
C481        C  0.38939231  0.23670258  0.49906608    -0.06310
H482        H  0.32462223  0.19731578  0.50980959     0.07450
H483        H  0.39782984  0.25199262  0.49562944     0.08650
Cu484      Cu  0.43609050  0.17892822  0.50857626     0.44170
Cu485      Cu  0.49964368  0.22527369  0.49868017     0.41990
Cu486      Cu  0.56512194  0.17940385  0.49062800     0.43880
N487        N  0.47809852  0.15384415  0.50437940    -0.34970
N488        N  0.52498679  0.15402013  0.49648091    -0.29220
C489        C  0.54124496  0.13552922  0.49426483    -0.05320
C490        C  0.50293600  0.12303474  0.50168116     0.06900
C491        C  0.46331467  0.13522242  0.50762642     0.00690
H492        H  0.57799751  0.13159613  0.48711938     0.08340
H493        H  0.42631491  0.13088138  0.51375604     0.07420
N494        N  0.59955692  0.20630951  0.49318768    -0.36410
N495        N  0.57606660  0.22309120  0.49656802    -0.28590
C496        C  0.60952050  0.23754927  0.49897794    -0.03830
C497        C  0.65625043  0.22941116  0.49746985     0.04780
C498        C  0.64836336  0.20960537  0.49337938     0.02870
H499        H  0.60052668  0.25282994  0.50202702     0.07980
H500        H  0.67594598  0.19835507  0.49050090     0.06810
N501        N  0.56567202  0.22347744  0.75099745    -0.27580
N502        N  0.58984235  0.20671967  0.75150766    -0.35440
C503        C  0.63846756  0.21043953  0.75205966     0.00760
C504        C  0.64542736  0.23052016  0.75196562     0.06790
C505        C  0.59828399  0.23827885  0.75087287    -0.06310
H506        H  0.66673541  0.19929575  0.75224318     0.07450
H507        H  0.58812601  0.25350138  0.74907220     0.08650
Cu508      Cu  0.55611725  0.17949611  0.75012027     0.44170
Cu509      Cu  0.48954951  0.22563434  0.75039179     0.41990
Cu510      Cu  0.42330597  0.17975430  0.75154369     0.43880
N511        N  0.51358627  0.15427884  0.74936557    -0.34970
N512        N  0.46500871  0.15441812  0.75100072    -0.29220
C513        C  0.44843246  0.13590419  0.75119487    -0.05320
C514        C  0.48841132  0.12336659  0.74874233     0.06580
C515        C  0.52915865  0.13564342  0.74798556     0.00690
H516        H  0.41006051  0.13202763  0.75369722     0.08340
H517        H  0.56745614  0.13136110  0.74650051     0.07420
N518        N  0.38934265  0.20682336  0.74972910    -0.36410
N519        N  0.41340199  0.22361197  0.74987047    -0.28590
C520        C  0.38066813  0.23835951  0.74969071    -0.03830
C521        C  0.33357317  0.23048861  0.74877644     0.04780
C522        C  0.34071293  0.21043069  0.74908243     0.02870
H523        H  0.39070096  0.25361980  0.75118342     0.07980
H524        H  0.31256869  0.19922116  0.74910927     0.06810
N525        N  0.57599718  0.77708940  0.50563384    -0.27580
N526        N  0.59971848  0.79371247  0.50125374    -0.35440
C527        C  0.64814737  0.79002405  0.49880481     0.00760
C528        C  0.65543608  0.77008226  0.50153819     0.06790
C529        C  0.60881860  0.76237881  0.50626048    -0.06310
H530        H  0.67601294  0.80107744  0.49509945     0.07450
H531        H  0.59925657  0.74727467  0.51031750     0.08650
Cu532      Cu  0.56580058  0.82071770  0.49886462     0.44170
Cu533      Cu  0.49994643  0.77501073  0.50865788     0.41990
Cu534      Cu  0.43375239  0.82003251  0.49353966     0.43880
N535        N  0.52325621  0.84576000  0.49760154    -0.34970
N536        N  0.47475118  0.84551472  0.49520913    -0.29220
C537        C  0.45795078  0.86398926  0.49537129    -0.05320
C538        C  0.49780843  0.87649620  0.49849224     0.06900
C539        C  0.53865882  0.86439326  0.49945720     0.00690
H540        H  0.41956472  0.86793792  0.49302983     0.08340
H541        H  0.57679544  0.86879526  0.50171032     0.07420
N542        N  0.40034854  0.79295627  0.49731844    -0.36410
N543        N  0.42406948  0.77665171  0.50387133    -0.28590
C544        C  0.39140795  0.76190150  0.50556724    -0.03830
C545        C  0.34489894  0.76921573  0.49927859     0.04780
C546        C  0.35209021  0.78900533  0.49449773     0.02870
H547        H  0.40098303  0.74707293  0.51150049     0.07980
H548        H  0.32423779  0.79978977  0.48929347     0.06810
N549        N  0.56676869  0.77571539  0.74409661    -0.27580
N550        N  0.59043818  0.79228407  0.73921570    -0.35440
C551        C  0.63911600  0.78868477  0.73840394     0.00760
C552        C  0.64654035  0.76884969  0.74275858     0.06790
C553        C  0.59972761  0.76114307  0.74659691    -0.06310
H554        H  0.66714667  0.79978986  0.73563535     0.07450
H555        H  0.59024897  0.74624056  0.75221005     0.08650
Cu556      Cu  0.55580469  0.81926631  0.73731542     0.44170
Cu557      Cu  0.49104295  0.77395032  0.74901426     0.41990
Cu558      Cu  0.42721796  0.81995052  0.75960954     0.43880
N559        N  0.51567920  0.84467613  0.74416078    -0.34970
N560        N  0.46970119  0.84496076  0.75388671    -0.29220
C561        C  0.45572998  0.86364886  0.75782077    -0.05320
C562        C  0.49478865  0.87582256  0.75027809     0.06900
C563        C  0.53187230  0.86314688  0.74122682     0.00690
H564        H  0.41960657  0.86803504  0.76558583     0.08340
H565        H  0.56774484  0.86688646  0.73244333     0.07420
N566        N  0.39207282  0.79295263  0.75839334    -0.36410
N567        N  0.41541080  0.77624669  0.75395255    -0.28590
C568        C  0.38222376  0.76169714  0.75214249    -0.03830
C569        C  0.33557954  0.76951899  0.75605099     0.04780
C570        C  0.34334574  0.78942806  0.75966050     0.02870
H571        H  0.39147062  0.74668900  0.74700782     0.07980
H572        H  0.31550928  0.80061088  0.76234924     0.06810
N573        N  0.92371305  0.72373864  0.49672809    -0.27580
N574        N  0.89997030  0.70738681  0.50305268    -0.35440
C575        C  0.85169243  0.71127718  0.50581624     0.00760
C576        C  0.84459847  0.73107916  0.50135134     0.06790
C577        C  0.89107360  0.73849418  0.49530855    -0.06310
H578        H  0.82376431  0.70045346  0.51073939     0.07450
H579        H  0.90054267  0.75340481  0.48973378     0.08650
Cu580      Cu  0.93340575  0.68036363  0.50679354     0.44170
Cu581      Cu  0.99948712  0.72530537  0.49138053     0.41990
Cu582      Cu  0.06535244  0.67950082  0.50101037     0.43880
N583        N  0.97399172  0.65483720  0.50500575    -0.34970
N584        N  0.02242203  0.65447484  0.50221092    -0.29220
C585        C  0.03733990  0.63578946  0.50012273    -0.05320
C586        C  0.99623187  0.62377799  0.50142696     0.06900
C587        C  0.95678659  0.63641824  0.50499276     0.00690
H588        H  0.07532656  0.63128917  0.49753862     0.08340
H589        H  0.91839054  0.63261824  0.50780168     0.07420
N590        N  0.09925791  0.70658380  0.49861194    -0.36410
N591        N  0.07555556  0.72316132  0.49392611    -0.28590
C592        C  0.10836065  0.73788567  0.49303204    -0.03830
C593        C  0.15501443  0.73029587  0.49808777     0.04780
C594        C  0.14765712  0.71035143  0.50117962     0.02870
H595        H  0.09865094  0.75290930  0.48855186     0.07980
H596        H  0.17545438  0.69933828  0.50523082     0.06810
N597        N  0.91530708  0.72386017  0.75596310    -0.27580
N598        N  0.89184715  0.70719970  0.76049178    -0.35440
C599        C  0.84313152  0.71070429  0.76147860     0.00760
C600        C  0.83544544  0.73056695  0.75758488     0.06790
C601        C  0.88216018  0.73839017  0.75383908    -0.06310
H602        H  0.81524987  0.69951919  0.76403940     0.07450
H603        H  0.89145300  0.75335555  0.74851656     0.08650
Cu604      Cu  0.92672425  0.68024475  0.76174460     0.44170
Cu605      Cu  0.99102272  0.72588957  0.75103059     0.41990
Cu606      Cu  0.05575229  0.68012523  0.74060352     0.43880
N607        N  0.96761164  0.65500194  0.75505724    -0.34970
N608        N  0.01398789  0.65493934  0.74603328    -0.29220
C609        C  0.02877025  0.63632764  0.74237984    -0.05320
C610        C  0.98978950  0.62399276  0.74928284     0.06900
C611        C  0.95187050  0.63644920  0.75769170     0.00690
H612        H  0.06534994  0.63209431  0.73522618     0.08340
H613        H  0.91571041  0.63246866  0.76579704     0.07420
N614        N  0.09031968  0.70720571  0.74162368    -0.36410
N615        N  0.06672230  0.72385770  0.74601272    -0.28590
C616        C  0.09971062  0.73848878  0.74774233    -0.03830
C617        C  0.14647024  0.73075857  0.74384553     0.04780
C618        C  0.13897496  0.71083387  0.74030105     0.02870
H619        H  0.09026976  0.75348215  0.75284721     0.07980
H620        H  0.16695630  0.69970289  0.73766289     0.06810
N621        N  0.07632025  0.27629357  0.50190465    -0.27580
N622        N  0.09982094  0.29321110  0.50113843    -0.35440
C623        C  0.14859310  0.28995197  0.50094890     0.00760
C624        C  0.15670927  0.27000325  0.50254777     0.06790
C625        C  0.10985699  0.26179602  0.50267636    -0.06310
H626        H  0.17588255  0.30139617  0.49916304     0.07450
H627        H  0.10078848  0.24640486  0.50346072     0.08650
Cu628      Cu  0.06593391  0.32027316  0.50150513     0.44170
Cu629      Cu  0.99971503  0.27394374  0.50121431     0.41990
Cu630      Cu  0.93481757  0.32073028  0.49905454     0.43880
N631        N  0.02521928  0.34579926  0.50088043    -0.34970
N632        N  0.97677990  0.34596367  0.49859689    -0.29220
C633        C  0.96125124  0.36457564  0.49713685    -0.05320
C634        C  0.00193886  0.37687473  0.49870021     0.06900
C635        C  0.04181929  0.36429956  0.50163241     0.00690
H636        H  0.92299028  0.36879834  0.49508764     0.08340
H637        H  0.08006212  0.36807610  0.50495716     0.07420
N638        N  0.90021485  0.29379248  0.49975208    -0.36410
N639        N  0.92323821  0.27676773  0.49986640    -0.28590
C640        C  0.88931916  0.26239757  0.49913292    -0.03830
C641        C  0.84275842  0.27078964  0.49831401     0.04780
C642        C  0.85134290  0.29072546  0.49929978     0.02870
H643        H  0.89793592  0.24696060  0.49895830     0.07980
H644        H  0.82425725  0.30228486  0.50017325     0.06810
N645        N  0.06514543  0.27662802  0.75458801    -0.27580
N646        N  0.08912431  0.29329747  0.75799283    -0.35440
C647        C  0.13772438  0.28962845  0.75909440     0.00760
C648        C  0.14475922  0.26965106  0.75651003     0.06790
C649        C  0.09785639  0.26189797  0.75336317    -0.06310
H650        H  0.16593794  0.30073625  0.76115182     0.07450
H651        H  0.08813336  0.24678514  0.74935108     0.08650
Cu652      Cu  0.05503821  0.32034743  0.75860074     0.44170
Cu653      Cu  0.98929392  0.27484460  0.75056006     0.41990
Cu654      Cu  0.92408044  0.32093127  0.74319690     0.43880
N655        N  0.01443303  0.34570582  0.75330499    -0.34970
N656        N  0.96689021  0.34598557  0.74689536    -0.29220
C657        C  0.95226350  0.36467028  0.74402500    -0.05320
C658        C  0.99264724  0.37675330  0.74856917     0.06900
C659        C  0.03124529  0.36416063  0.75482278     0.00690
H660        H  0.91493074  0.36913374  0.73895940     0.08340
H661        H  0.06868455  0.36803233  0.76066551     0.07420
N662        N  0.88972592  0.29380869  0.74355213    -0.36410
N663        N  0.91350717  0.27707721  0.74661581    -0.28590
C664        C  0.88066344  0.26237457  0.74745883    -0.03830
C665        C  0.83384585  0.27015896  0.74436683     0.04780
C666        C  0.84107605  0.29016203  0.74225921     0.02870
H667        H  0.89027353  0.24723724  0.75116857     0.07980
H668        H  0.81295725  0.30129442  0.74033385     0.06810
O669        O  0.95581332  0.53000429  0.49994736    -0.73230
O670        O  0.95419933  0.47124344  0.49920861    -0.74210
O671        O  0.95353266  0.50046315  0.54458096    -0.62830
O672        O  0.95606338  0.50080853  0.95452155    -0.71240
O673        O  0.03749867  0.50030709  0.95527262    -0.70800
O674        O  0.03491125  0.50032831  0.54563666    -0.62050
O675        O  0.03571445  0.47107567  0.50036488    -0.74560
O676        O  0.03741370  0.52956091  0.50067355    -0.73340
Cu677      Cu  0.95208009  0.50064022  0.49952025     1.04560
Cu678      Cu  0.03919436  0.50030399  0.00049817     1.04330
C679        C  0.99700069  0.53908507  0.50068678     0.92960
C680        C  0.99480828  0.46182399  0.49987433     0.92100
C681        C  0.99364764  0.50042075  0.55953847     0.84250
C682        C  0.99715081  0.50064245  0.94048864     0.90520
O683        O  0.95443413  0.52979899  0.74967551    -0.73230
O684        O  0.95159686  0.47120069  0.74978925    -0.74210
O685        O  0.95209856  0.50060647  0.79488856    -0.62830
O686        O  0.95449840  0.50036564  0.70452347    -0.71240
O687        O  0.03585967  0.49991626  0.70550401    -0.70800
O688        O  0.03352610  0.49994603  0.79556438    -0.62050
O689        O  0.03313498  0.47057109  0.75048281    -0.74560
O690        O  0.03584820  0.52934996  0.75054182    -0.73340
Cu691      Cu  0.95034353  0.50051860  0.74968590     1.04560
Cu692      Cu  0.03739566  0.49993043  0.75055031     1.04330
C693        C  0.99551220  0.53895209  0.75016327     0.92960
C694        C  0.99183180  0.46155619  0.75032541     0.92100
C695        C  0.99247231  0.50018552  0.80963270     0.84250
C696        C  0.99572032  0.50007840  0.69058031     0.90520
C697        C  0.03682576  0.50435771  0.85822173    -0.09450
C698        C  0.99249093  0.50017308  0.84311245     0.06750
C699        C  0.95006613  0.49608310  0.86048576    -0.03210
C700        C  0.95285584  0.49640883  0.89188613    -0.07660
C701        C  0.99717818  0.50061894  0.90700132     0.05870
C702        C  0.03963843  0.50464797  0.88962257    -0.02690
Br703      Br  0.10262628  0.51135391  0.90654746    -0.02380
H704        H  0.06983893  0.50766602  0.84552587     0.09780
H705        H  0.91984611  0.49308614  0.90457546     0.07800
Br706      Br  0.88722433  0.48916939  0.84354247    -0.02810
C707        C  0.95145117  0.50210361  0.64161394    -0.09450
C708        C  0.99637933  0.50004991  0.65705202     0.06750
C709        C  0.04011383  0.49809959  0.63991217    -0.03210
C710        C  0.03786159  0.49831682  0.60849871    -0.07660
C711        C  0.99293998  0.50037989  0.59306187     0.05870
C712        C  0.94919695  0.50230432  0.61019664    -0.02690
Br713      Br  0.88465846  0.50560053  0.59307615    -0.02380
H714        H  0.91737521  0.50368906  0.65405334     0.09780
H715        H  0.07193996  0.49673677  0.59605959     0.07800
Br716      Br  0.10465593  0.49475682  0.65700887    -0.02810
C717        C  0.95222968  0.40843555  0.76031275    -0.09450
C718        C  0.99310078  0.39843283  0.74857342     0.06750
C719        C  0.03304562  0.40938632  0.73717858    -0.03210
C720        C  0.03182083  0.42981376  0.73833560    -0.07660
C721        C  0.99106272  0.43985599  0.75021096     0.05870
C722        C  0.95081938  0.42887623  0.76130363    -0.02690
Br723      Br  0.89381629  0.44054020  0.77962068    -0.02380
H724        H  0.92138749  0.40028683  0.76935226     0.09780
H725        H  0.06265583  0.43791617  0.72918038     0.07800
Br726      Br  0.08859237  0.39767927  0.71739739    -0.02810
C727        C  0.03785965  0.43056881  0.98922959    -0.09450
C728        C  0.99533782  0.44011733  0.49964943     0.06750
C729        C  0.95516180  0.42865280  0.50948554    -0.03210
C730        C  0.95869756  0.40824996  0.50915826    -0.07660
C731        C  0.00126362  0.39865462  0.49873201     0.05870
C732        C  0.04101247  0.41017966  0.98824418    -0.02690
Br733      Br  0.09923494  0.39969451  0.96974963    -0.02380
H734        H  0.06873176  0.43904911  0.98096680     0.09780
H735        H  0.92778870  0.39985988  0.51750884     0.07800
Br736      Br  0.89489160  0.43956576  0.52474008    -0.02810
C737        C  0.03458437  0.59259962  0.75627564    -0.09450
C738        C  0.99040829  0.60225076  0.74918763     0.06750
C739        C  0.94861401  0.59086538  0.74186823    -0.03210
C740        C  0.95145145  0.57046046  0.74262230    -0.07660
C741        C  0.99550829  0.56074102  0.74995829     0.05870
C742        C  0.03767268  0.57216825  0.75664060    -0.02690
Br743      Br  0.10063336  0.56132097  0.76722253    -0.02380
H744        H  0.06710200  0.60101419  0.76199265     0.09780
H745        H  0.91885006  0.56213537  0.73675355     0.07800
Br746      Br  0.88751959  0.60179721  0.72805743    -0.02810
C747        C  0.95901347  0.57085982  0.98704576    -0.09450
C748        C  0.99759466  0.56073281  0.50113174     0.06750
C749        C  0.03572208  0.57155847  0.51503014    -0.03210
C750        C  0.03437399  0.59198773  0.51467505    -0.07660
C751        C  0.99568711  0.60211560  0.50070681     0.05870
C752        C  0.95797343  0.59129567  0.98640107    -0.02690
Br753      Br  0.90632286  0.60318846  0.96329821    -0.02380
H754        H  0.92997557  0.56281623  0.97574257     0.09780
H755        H  0.06347792  0.60001718  0.52592498     0.07800
Br756      Br  0.08932233  0.55960917  0.53641111    -0.02810
C757        C  0.24845256  0.76894726  0.73883064    -0.09450
C758        C  0.28743012  0.75937026  0.75343996     0.06750
C759        C  0.27943880  0.74037992  0.76483982    -0.03210
C760        C  0.23350312  0.73139208  0.76115738    -0.07660
C761        C  0.19453568  0.74095957  0.74652974     0.05870
C762        C  0.20250721  0.75995364  0.73514365    -0.02690
Br763      Br  0.15398620  0.77393683  0.71230665    -0.02380
H764        H  0.25405776  0.78338970  0.72950904     0.09780
H765        H  0.22791190  0.71695000  0.77048335     0.07800
Br766      Br  0.32791716  0.72637286  0.78768119    -0.02810
C767        C  0.73293327  0.76851136  0.76122181    -0.09450
C768        C  0.69453471  0.75876309  0.74621482     0.06750
C769        C  0.70298087  0.73970892  0.73511347    -0.03210
C770        C  0.74888289  0.73083811  0.73937754    -0.07660
C771        C  0.78731853  0.74059725  0.75434225     0.05870
C772        C  0.77881887  0.75963365  0.76551639    -0.02690
Br773      Br  0.82652709  0.77382815  0.78881773    -0.02380
H774        H  0.72691005  0.78301095  0.77033667     0.09780
H775        H  0.75489370  0.71634451  0.73024018     0.07800
Br776      Br  0.65515913  0.72549058  0.71193489    -0.02810
C777        C  0.25529378  0.76862734  0.51015231    -0.09450
C778        C  0.29697743  0.75880980  0.49911525     0.06750
C779        C  0.29138513  0.73963813  0.98780124    -0.03210
C780        C  0.24490024  0.73081162  0.98778373    -0.07660
C781        C  0.20311764  0.74063641  0.49874598     0.05870
C782        C  0.20884447  0.75976927  0.51030486    -0.02690
Br783      Br  0.15647207  0.77428482  0.52886533    -0.02380
H784        H  0.25899051  0.78322548  0.51937402     0.09780
H785        H  0.24132052  0.71623393  0.97848604     0.07800
Br786      Br  0.34426498  0.72506660  0.96990344    -0.02810
C787        C  0.75584351  0.73216874  0.98836971    -0.09450
C788        C  0.79680966  0.74145836  0.50135351     0.06750
C789        C  0.79078969  0.76014388  0.51431090    -0.03210
C790        C  0.74449694  0.76909093  0.51397142    -0.07660
C791        C  0.70342947  0.75978774  0.50106496     0.05870
C792        C  0.70959804  0.74115390  0.98786813    -0.02690
Br793      Br  0.65805100  0.72772265  0.96663589    -0.02380
H794        H  0.76003243  0.71794456  0.97792144     0.09780
H795        H  0.74040885  0.78329561  0.52448582     0.07800
Br796      Br  0.84287614  0.77367446  0.53488310    -0.02810
C797        C  0.73221851  0.23231078  0.73453014    -0.09450
C798        C  0.69328167  0.24099027  0.75051329     0.06750
C799        C  0.70132096  0.25927218  0.76455868    -0.03210
C800        C  0.74713549  0.26849761  0.76191066    -0.07660
C801        C  0.78598537  0.25979005  0.74594145     0.05870
C802        C  0.77810850  0.24147171  0.73209019    -0.02690
Br803      Br  0.82680176  0.22871541  0.70766681    -0.02380
H804        H  0.72671311  0.21843411  0.72324532     0.09780
H805        H  0.75280308  0.28239445  0.77312235     0.07800
Br806      Br  0.65340844  0.27186080  0.78975137    -0.02810
C807        C  0.24675422  0.23208755  0.76614280    -0.09450
C808        C  0.28556037  0.24081887  0.75013093     0.06750
C809        C  0.27719157  0.25898210  0.73595192    -0.03210
C810        C  0.23123527  0.26807624  0.73859240    -0.07660
C811        C  0.19257801  0.25933000  0.75465068     0.05870
C812        C  0.20070786  0.24109834  0.76852196    -0.02690
Br813      Br  0.15211913  0.22829130  0.79289193    -0.02380
H814        H  0.25247016  0.21829368  0.77750764     0.09780
H815        H  0.22532367  0.28190970  0.72735749     0.07800
Br816      Br  0.32483362  0.27157278  0.71063523    -0.02810
C817        C  0.70858426  0.25751591  0.98270329    -0.09450
C818        C  0.70401965  0.23987332  0.49842783     0.06750
C819        C  0.74522574  0.23259551  0.51422318    -0.03210
C820        C  0.78982137  0.24287717  0.51371326    -0.07660
C821        C  0.79456637  0.26049611  0.49782560     0.05870
C822        C  0.75324607  0.26772601  0.98195782    -0.02690
Br823      Br  0.75562580  0.29036258  0.95655613    -0.02380
H824        H  0.67750655  0.26312939  0.97009889     0.09780
H825        H  0.82078789  0.23720886  0.52634634     0.07800
Br826      Br  0.74242673  0.20954481  0.53871220    -0.02810
C827        C  0.20818057  0.24138371  0.98806575    -0.09450
C828        C  0.20470070  0.25953706  0.50275469     0.06750
C829        C  0.24712447  0.26713931  0.51715164    -0.03210
C830        C  0.29155429  0.25681889  0.51600924    -0.07660
C831        C  0.29496183  0.23870093  0.50135956     0.05870
C832        C  0.25258901  0.23098381  0.98719071    -0.02690
Br833      Br  0.25331037  0.20712923  0.96436272    -0.02380
H834        H  0.17635396  0.23537627  0.97659395     0.09780
H835        H  0.32348221  0.26278729  0.52744249     0.07800
Br836      Br  0.24692493  0.29053956  0.54108601    -0.02810
C837        C  0.52926736  0.09188136  0.76145753    -0.09450
C838        C  0.48877672  0.10161036  0.74865092     0.06750
C839        C  0.45041918  0.09026464  0.73594683    -0.03210
C840        C  0.45265459  0.06985083  0.73712754    -0.07660
C841        C  0.49304516  0.06014932  0.75000729     0.05870
C842        C  0.53189713  0.07145162  0.76213398    -0.02690
Br843      Br  0.58861038  0.06019775  0.78129020    -0.02380
H844        H  0.55900756  0.10020774  0.77148747     0.09780
H845        H  0.42296704  0.06146911  0.72710743     0.07800
Br846      Br  0.39591614  0.10119086  0.71417957    -0.02810
C847        C  0.53502605  0.92932571  0.75523284    -0.09450
C848        C  0.49034926  0.93918715  0.75008219     0.06750
C849        C  0.44725528  0.92785945  0.74543779    -0.03210
C850        C  0.45007320  0.90742524  0.74546769    -0.07660
C851        C  0.49480096  0.89760793  0.75043130     0.05870
C852        C  0.53759447  0.90889879  0.75582921    -0.02690
Br853      Br  0.60011481  0.89790360  0.76685453    -0.02380
H854        H  0.56842374  0.93755537  0.75952841     0.09780
H855        H  0.41673692  0.89914882  0.74126350     0.07800
Br856      Br  0.38298615  0.93878024  0.73851993    -0.02810
C857        C  0.45396582  0.00395045  0.89213419    -0.09450
C858        C  0.49839852  0.99953902  0.90690444     0.06750
C859        C  0.54041164  0.99529072  0.88921456    -0.03210
C860        C  0.53708823  0.99561944  0.85783999    -0.07660
C861        C  0.49264987  0.00002209  0.84305804     0.05870
C862        C  0.45064037  0.00428405  0.86075557    -0.02690
Br863      Br  0.38761865  0.01138375  0.84433541    -0.02380
H864        H  0.42131083  0.00742038  0.90508661     0.09780
H865        H  0.56976312  0.99215343  0.84490609     0.07800
Br866      Br  0.60340953  0.98818046  0.90565602    -0.02810
C867        C  0.53831968  0.00075494  0.64219047    -0.09450
C868        C  0.49255487  0.99962767  0.65694468     0.06750
C869        C  0.44935652  0.99853056  0.63913508    -0.03210
C870        C  0.45294514  0.99858335  0.60776256    -0.07660
C871        C  0.49870988  0.99969580  0.59300358     0.05870
C872        C  0.54190738  0.00081765  0.61081441    -0.02690
Br873      Br  0.60748087  0.00266101  0.59469638    -0.02380
H874        H  0.57205602  0.00166991  0.65514157     0.09780
H875        H  0.41919970  0.99767790  0.59481928     0.07800
Br876      Br  0.38377733  0.99670122  0.65525326    -0.02810
C877        C  0.45967671  0.09167341  0.99196959    -0.09450
C878        C  0.50257856  0.10136725  0.50147562     0.06750
C879        C  0.54343247  0.09012107  0.51074475    -0.03210
C880        C  0.54094183  0.06972426  0.50974087    -0.07660
C881        C  0.49811270  0.05997113  0.50010788     0.05870
C882        C  0.45697464  0.07126275  0.99118632    -0.02690
Br883      Br  0.39645579  0.06018984  0.97647618    -0.02380
H884        H  0.42804122  0.10004042  0.98459997     0.09780
H885        H  0.57262768  0.06143049  0.51723635     0.07800
Br886      Br  0.60233070  0.10131510  0.52745010    -0.02810
C887        C  0.46309881  0.92941865  0.51425891    -0.09450
C888        C  0.50056304  0.93944674  0.49894098     0.06750
C889        C  0.53709376  0.92858202  0.98370662    -0.03210
C890        C  0.53540571  0.90815755  0.98403320    -0.07660
C891        C  0.49780894  0.89812662  0.49923237     0.05870
C892        C  0.46167150  0.90899266  0.51481309    -0.02690
Br893      Br  0.41191799  0.89709824  0.53941138    -0.02380
H894        H  0.43530016  0.93753158  0.52652677     0.09780
H895        H  0.56325737  0.90005674  0.97180264     0.07800
Br896      Br  0.58848194  0.94055830  0.96045106    -0.02810
loop_ 
_geom_bond_atom_site_label_1 
_geom_bond_atom_site_label_2 
_geom_bond_distance 
_geom_bond_site_symmetry_2 
_ccdc_geom_bond_type 
O1           Cu9   2.006       .  S
O1           C11   1.278       .  A
O2           Cu9   2.007   1_545  S
O2          C460   1.276       .  A
O3           Cu9   2.009       .  S
O3           C13   1.279       .  A
O4         Cu457   2.008   1_554  S
O4           C14   1.279       .  A
O5          Cu10   2.010   1_554  S
O5           C14   1.277       .  A
O6         Cu458   2.008       .  S
O6           C13   1.276       .  A
O7          Cu10   2.004   1_544  S
O7           C12   1.278   1_554  A
O8          Cu10   2.005       .  S
O8          C459   1.277       .  A
Cu9         O452   2.008       .  S
Cu9        Cu458   2.365       .  S
Cu10        O454   2.008       .  S
Cu10       Cu457   2.365       .  S
C11         O456   1.277       .  A
C11         C888   1.478       .  S
C12         O450   1.276       .  A
C12         C433   1.485   1_556  S
C13         C410   1.489       .  S
C14         C423   1.493       .  S
O15         Cu23   2.008       .  S
O15          C25   1.276       .  A
O16         Cu23   2.008   1_545  S
O16          C26   1.278       .  A
O17         Cu23   2.009       .  S
O17          C27   1.276       .  A
O18         Cu23   2.009       .  S
O18          C28   1.277       .  A
O19         Cu24   2.008       .  S
O19          C28   1.279       .  A
O20         Cu24   2.009       .  S
O20          C27   1.279       .  A
O21         Cu24   2.012   1_545  S
O21          C26   1.277       .  A
O22         Cu24   2.013       .  S
O22          C25   1.279       .  A
Cu23        Cu24   2.363       .  S
C25         C400   1.492       .  S
C26         C393   1.485       .  S
C27         C420   1.492       .  S
C28         C413   1.490   1_565  S
N29          N30   1.322       .  A
N29          C33   1.346   1_554  A
N29         Cu37   2.082   1_554  S
N30          C31   1.344       .  A
N30         Cu36   2.069       .  S
C31          C32   1.384       .  A
C31          H34   1.081       .  S
C32         C383   1.483       .  S
C32          C33   1.387   1_554  A
C33          H35   1.082       .  S
Cu36         N39   2.069       .  S
Cu37         N47   2.081       .  S
Cu38         N40   2.066       .  S
Cu38         N46   2.067       .  S
N39          N40   1.320   1_554  A
N39          C43   1.343       .  A
N40          C41   1.343       .  A
C41          C42   1.386   1_556  A
C41          H44   1.081       .  S
C42         C430   1.482       .  S
C42          C43   1.386       .  A
C43          H45   1.082       .  S
N46          N47   1.322       .  A
N46          C50   1.343       .  A
N47          C48   1.346       .  A
C48          C49   1.387       .  A
C48          H51   1.082   1_556  S
C49         C370   1.481       .  S
C49          C50   1.383       .  A
C50          H52   1.081       .  S
N53          N54   1.321       .  A
N53          C57   1.344       .  A
N53         Cu61   2.071       .  S
N54          C55   1.344       .  A
N54         Cu60   2.075       .  S
C55          C56   1.387       .  A
C55          H58   1.082       .  S
C56         C350   1.484       .  S
C56          C57   1.386       .  A
C57          H59   1.081       .  S
Cu60         N63   2.075       .  S
Cu61         N71   2.071       .  S
Cu62         N64   2.071       .  S
Cu62         N70   2.071       .  S
N63          N64   1.320       .  A
N63          C67   1.345       .  A
N64          C65   1.344       .  A
C65          C66   1.388       .  A
C65          H68   1.080       .  S
C66         C390   1.488       .  S
C66          C67   1.389       .  A
C67          H69   1.082       .  S
N70          N71   1.321       .  A
N70          C74   1.343       .  A
N71          C72   1.345       .  A
C72          C73   1.387       .  A
C72          H75   1.081       .  S
C73         C360   1.484       .  S
C73          C74   1.386       .  A
C74          H76   1.082       .  S
N77          N78   1.321       .  A
N77          C81   1.345       .  A
N77         Cu85   2.073       .  S
N78          C79   1.343   1_554  A
N78         Cu84   2.068   1_554  S
C79          C80   1.384   1_556  A
C79          H82   1.082       .  S
C80         C343   1.481       .  S
C80          C81   1.386       .  A
C81          H83   1.081       .  S
Cu84         N87   2.067       .  S
Cu85         N95   2.073       .  S
Cu86         N88   2.069       .  S
Cu86         N94   2.069       .  S
N87          N88   1.321       .  A
N87          C91   1.344       .  A
N88          C89   1.344       .  A
C89          C90   1.385       .  A
C89          H92   1.081       .  S
C90         C443   1.480       .  S
C90          C91   1.385       .  A
C91          H93   1.082   1_556  S
N94          N95   1.321   1_556  A
N94          C98   1.343       .  A
N95          C96   1.345       .  A
C96          C97   1.387   1_554  A
C96          H99   1.081       .  S
C97         C330   1.482       .  S
C97          C98   1.385       .  A
C98         H100   1.082       .  S
N101        N102   1.321       .  A
N101        C105   1.345       .  A
N101       Cu109   2.070       .  S
N102        C103   1.344       .  A
N102       Cu108   2.074       .  S
C103        C104   1.386       .  A
C103        H106   1.082       .  S
C104        C320   1.482       .  S
C104        C105   1.386       .  A
C105        H107   1.081       .  S
Cu108       N111   2.074       .  S
Cu109       N119   2.070       .  S
Cu110       N112   2.079       .  S
Cu110       N118   2.079       .  S
N111        N112   1.321       .  A
N111        C115   1.344       .  A
N112        C113   1.345       .  A
C113        C114   1.389       .  A
C113        H116   1.082       .  S
C114        C403   1.490       .  S
C114        C115   1.388       .  A
C115        H117   1.080       .  S
N118        N119   1.321       .  A
N118        C122   1.345       .  A
N119        C120   1.344       .  A
C120        C121   1.385       .  A
C120        H123   1.081       .  S
C121        C310   1.484       .  S
C121        C122   1.387       .  A
C122        H124   1.082       .  S
N125        N126   1.322   1_556  A
N125        C129   1.345       .  A
N125       Cu133   2.073       .  S
N126        C127   1.343       .  A
N126       Cu132   2.067       .  S
C127        C128   1.383       .  A
C127        H130   1.082       .  S
C128        C340   1.479       .  S
C128        C129   1.386   1_554  A
C129        H131   1.081       .  S
Cu132       N135   2.067       .  S
Cu133       N143   2.073   1_655  S
Cu134       N136   2.071       .  S
Cu134       N142   2.071   1_554  S
N135        N136   1.320   1_655  A
N135        C139   1.343       .  A
N136        C137   1.344       .  A
C137        C138   1.386   1_455  A
C137        H140   1.082   1_554  S
C138        C303   1.482       .  S
C138        C139   1.385       .  A
C139        H141   1.081       .  S
N142        N143   1.321       .  A
N142        C146   1.343   1_556  A
N143        C144   1.345       .  A
C144        C145   1.387       .  A
C144        H147   1.080       .  S
C145        C333   1.485       .  S
C145        C146   1.386   1_556  A
C146        H148   1.082       .  S
N149        N150   1.321       .  A
N149        C153   1.344       .  A
N149       Cu157   2.071       .  S
N150        C151   1.344       .  A
N150       Cu156   2.074       .  S
C151        C152   1.386       .  A
C151        H154   1.082       .  S
C152        C323   1.483       .  S
C152        C153   1.386       .  A
C153        H155   1.081       .  S
Cu156       N159   2.074       .  S
Cu157       N167   2.071   1_655  S
Cu158       N160   2.076       .  S
Cu158       N166   2.076       .  S
N159        N160   1.321   1_655  A
N159        C163   1.344       .  A
N160        C161   1.345       .  A
C161        C162   1.388   1_455  A
C161        H164   1.082       .  S
C162        C290   1.487       .  S
C162        C163   1.387       .  A
C163        H165   1.080       .  S
N166        N167   1.321       .  A
N166        C170   1.345       .  A
N167        C168   1.344       .  A
C168        C169   1.386       .  A
C168        H171   1.081       .  S
C169        C313   1.483       .  S
C169        C170   1.387       .  A
C170        H172   1.082       .  S
N173        N174   1.322       .  A
N173        C177   1.347       .  A
N173       Cu181   2.085   1_455  S
N174        C175   1.342       .  A
N174       Cu180   2.068       .  S
C175        C176   1.385       .  A
C175        H178   1.080   1_554  S
C176        C380   1.487       .  S
C176        C177   1.390       .  A
C177        H179   1.082       .  S
Cu180       N183   2.067       .  S
Cu181       N191   2.085   1_554  S
Cu182       N184   2.067       .  S
Cu182       N190   2.068       .  S
N183        N184   1.318   1_454  A
N183        C187   1.343       .  A
N184        C185   1.343       .  A
C185        C186   1.389   1_655  A
C185        H188   1.082       .  S
C186        C283   1.490       .  S
C186        C187   1.389   1_556  A
C187        H189   1.079       .  S
N190        N191   1.322       .  A
N190        C194   1.343       .  A
N191        C192   1.347       .  A
C192        C193   1.389       .  A
C192        H195   1.082       .  S
C193        C373   1.485       .  S
C193        C194   1.384       .  A
C194        H196   1.081   1_556  S
N197        N198   1.321       .  A
N197        C201   1.344       .  A
N197       Cu205   2.070   1_455  S
N198        C199   1.344       .  A
N198       Cu204   2.069       .  S
C199        C200   1.385       .  A
C199        H202   1.082       .  S
C200        C363   1.480       .  S
C200        C201   1.385       .  A
C201        H203   1.081       .  S
Cu204       N207   2.070       .  S
Cu205       N215   2.070       .  S
Cu206       N208   2.076       .  S
Cu206       N214   2.076       .  S
N207        N208   1.321   1_455  A
N207        C211   1.344       .  A
N208        C209   1.345       .  A
C209        C210   1.387       .  A
C209        H212   1.082       .  S
C210        C270   1.483       .  S
C210        C211   1.385   1_655  A
C211        H213   1.081       .  S
N214        N215   1.322       .  A
N214        C218   1.345       .  A
N215        C216   1.344       .  A
C216        C217   1.385       .  A
C216        H219   1.081       .  S
C217        C353   1.481       .  S
C217        C218   1.386       .  A
C218        H220   1.082       .  S
O221       Cu229   2.011       .  S
O221        C231   1.279   1_556  A
O222       Cu229   2.012       .  S
O222        C232   1.277       .  A
O223       Cu229   2.005   1_554  S
O223        C233   1.276       .  A
O224       Cu677   2.005       .  S
O224        C234   1.278       .  A
O225       Cu230   2.013       .  S
O225        C234   1.277   1_455  A
O226       Cu678   2.012       .  S
O226        C233   1.279   1_455  A
O227       Cu678   2.002       .  S
O227        C232   1.278   1_454  A
O228       Cu678   2.002       .  S
O228        C231   1.276   1_455  A
Cu229       O672   2.005       .  S
Cu229      Cu678   2.364   1_656  S
Cu230       O674   2.012       .  S
Cu230       O675   2.002       .  S
Cu230       O676   2.002       .  S
Cu230      Cu677   2.364   1_455  S
C231        C300   1.481       .  S
C232        C280   1.485       .  S
C233        C263   1.492       .  S
C234        C253   1.490       .  S
O235       Cu243   2.006       .  S
O235        C245   1.278       .  A
O236       Cu243   2.006       .  S
O236        C246   1.276       .  A
O237       Cu243   2.012       .  S
O237        C247   1.277       .  A
O238       Cu243   2.012       .  S
O238        C248   1.279       .  A
O239       Cu244   2.005       .  S
O239        C248   1.275   1_455  A
O240       Cu244   2.005       .  S
O240        C247   1.278   1_455  A
O241       Cu244   2.012       .  S
O241        C246   1.279   1_455  A
O242       Cu244   2.013       .  S
O242        C245   1.277   1_455  A
Cu243      Cu244   2.363   1_655  S
C245        C293   1.491       .  S
C246        C273   1.485       .  S
C247        C250   1.490       .  S
C248        C260   1.492       .  S
C249        C250   1.407   1_455  A
C249        C254   1.399       .  A
C249        H256   1.083       .  S
C250        C251   1.415       .  A
C251        C252   1.399       .  A
C251       Br258   1.923       .  S
C252        C253   1.407       .  A
C252        H257   1.083       .  S
C253        C254   1.415   1_655  A
C254       Br255   1.922       .  S
C259        C260   1.406       .  A
C259        C264   1.399       .  A
C259        H266   1.083       .  S
C260        C261   1.417   1_655  A
C261        C262   1.399       .  A
C261       Br268   1.923       .  S
C262        C263   1.406   1_455  A
C262        H267   1.083       .  S
C263        C264   1.417       .  A
C264       Br265   1.923       .  S
C269        C270   1.404       .  A
C269        C274   1.399       .  A
C269        H276   1.083       .  S
C270        C271   1.412   1_655  A
C271        C272   1.399       .  A
C271       Br278   1.920       .  S
C272        C273   1.405   1_455  A
C272        H277   1.084       .  S
C273        C274   1.415       .  A
C274       Br275   1.922       .  S
C279        C284   1.398       .  A
C279        C728   1.405   1_455  A
C279        H286   1.084       .  S
C280        C281   1.413   1_556  A
C280        C727   1.405   1_655  A
C281        C282   1.399       .  A
C281       Br288   1.922       .  S
C282        C283   1.407   1_654  A
C282        H287   1.082       .  S
C283        C732   1.416       .  A
C284        C731   1.416       .  A
C284       Br285   1.920       .  S
C289        C290   1.405   1_455  A
C289        C294   1.400       .  A
C289        H296   1.083       .  S
C290        C291   1.413       .  A
C291        C292   1.399       .  A
C291       Br298   1.921       .  S
C292        C293   1.407       .  A
C292        H297   1.083       .  S
C293        C294   1.416   1_655  A
C294       Br295   1.922       .  S
C299        C304   1.399       .  A
C299        C748   1.404       .  A
C299        H306   1.084       .  S
C300        C301   1.413   1_655  A
C300        C747   1.404   1_554  A
C301        C302   1.398       .  A
C301       Br308   1.922       .  S
C302        C303   1.404   1_455  A
C302        H307   1.083       .  S
C303        C752   1.413   1_554  A
C304        C751   1.413       .  A
C304       Br305   1.920       .  S
C309        C310   1.405       .  A
C309        C314   1.399       .  A
C309        H316   1.083       .  S
C310        C311   1.412       .  A
C311        C312   1.399       .  A
C311       Br318   1.920       .  S
C312        C313   1.404       .  A
C312        H317   1.083       .  S
C313        C314   1.412       .  A
C314       Br315   1.920       .  S
C319        C320   1.404       .  A
C319        C324   1.399       .  A
C319        H326   1.083       .  S
C320        C321   1.412       .  A
C321        C322   1.399       .  A
C321       Br328   1.920       .  S
C322        C323   1.405       .  A
C322        H327   1.083       .  S
C323        C324   1.412       .  A
C324       Br325   1.920       .  S
C329        C330   1.404   1_554  A
C329        C334   1.398       .  A
C329        H336   1.083       .  S
C330        C779   1.412       .  A
C331        C332   1.398       .  A
C331        C778   1.412       .  A
C331       Br338   1.920       .  S
C332        C781   1.405       .  A
C332        H337   1.083       .  S
C333        C334   1.414   1_556  A
C333        C780   1.405       .  A
C334       Br335   1.920       .  S
C339        C344   1.398       .  A
C339        C788   1.404       .  A
C339        H346   1.083       .  S
C340        C341   1.411       .  A
C340        C787   1.404   1_554  A
C341        C342   1.398       .  A
C341       Br348   1.920       .  S
C342        C343   1.405       .  A
C342        H347   1.083       .  S
C343        C792   1.412   1_554  A
C344        C791   1.412       .  A
C344       Br345   1.920       .  S
C349        C350   1.405       .  A
C349        C354   1.398       .  A
C349        H356   1.083       .  S
C350        C351   1.413       .  A
C351        C352   1.399       .  A
C351       Br358   1.920       .  S
C352        C353   1.404       .  A
C352        H357   1.083       .  S
C353        C354   1.411       .  A
C354       Br355   1.920       .  S
C359        C360   1.405       .  A
C359        C364   1.398       .  A
C359        H366   1.083       .  S
C360        C361   1.413       .  A
C361        C362   1.399       .  A
C361       Br368   1.920       .  S
C362        C363   1.404       .  A
C362        H367   1.083       .  S
C363        C364   1.410       .  A
C364       Br365   1.920       .  S
C369        C374   1.399       .  A
C369        C818   1.402       .  A
C369        H376   1.084       .  S
C370        C371   1.412   1_556  A
C370        C817   1.402       .  A
C371        C372   1.400       .  A
C371       Br378   1.920       .  S
C372        C373   1.405   1_554  A
C372        H377   1.083       .  S
C373        C822   1.415       .  A
C374        C821   1.415       .  A
C374       Br375   1.920       .  S
C379        C384   1.400       .  A
C379        C828   1.405       .  A
C379        H386   1.083       .  S
C380        C381   1.415       .  A
C380        C827   1.405   1_554  A
C381        C382   1.398       .  A
C381       Br388   1.920       .  S
C382        C383   1.402       .  A
C382        H387   1.084       .  S
C383        C832   1.413   1_554  A
C384        C831   1.413       .  A
C384       Br385   1.920       .  S
C389        C390   1.406       .  A
C389        C394   1.400       .  A
C389        H396   1.083       .  S
C390        C391   1.415       .  A
C391        C392   1.399       .  A
C391       Br398   1.920       .  S
C392        C393   1.404       .  A
C392        H397   1.084       .  S
C393        C394   1.413       .  A
C394       Br395   1.921       .  S
C399        C400   1.407       .  A
C399        C404   1.400       .  A
C399        H406   1.083       .  S
C400        C401   1.417       .  A
C401        C402   1.400       .  A
C401       Br408   1.923       .  S
C402        C403   1.405       .  A
C402        H407   1.083       .  S
C403        C404   1.414       .  A
C404       Br405   1.920       .  S
C409        C410   1.406   1_545  A
C409        C414   1.399       .  A
C409        H416   1.083       .  S
C410        C411   1.416       .  A
C411        C412   1.399       .  A
C411       Br418   1.922       .  S
C412        C413   1.406   1_565  A
C412        H417   1.083       .  S
C413        C414   1.416       .  A
C414       Br415   1.923       .  S
C419        C420   1.407   1_545  A
C419        C424   1.399       .  A
C419        H426   1.083       .  S
C420        C421   1.416       .  A
C421        C422   1.399       .  A
C421       Br428   1.923       .  S
C422        C423   1.407       .  A
C422        H427   1.083       .  S
C423        C424   1.417   1_565  A
C424       Br425   1.923       .  S
C429        C434   1.399       .  A
C429        C878   1.404       .  A
C429        H436   1.083       .  S
C430        C431   1.412       .  A
C430        C877   1.404   1_554  A
C431        C432   1.398       .  A
C431       Br438   1.920       .  S
C432        C433   1.406       .  A
C432        H437   1.083       .  S
C433        C882   1.415   1_554  A
C434        C881   1.415       .  A
C434       Br435   1.922       .  S
C439        C440   1.404   1_554  A
C439        C444   1.398       .  A
C439        H446   1.084       .  S
C440        C459   1.478       .  S
C440        C889   1.412       .  A
C441        C442   1.398       .  A
C441        C888   1.412       .  A
C441       Br448   1.921       .  S
C442        C891   1.404       .  A
C442        H447   1.083       .  S
C443        C444   1.412   1_556  A
C443        C890   1.404       .  A
C444       Br445   1.920       .  S
O449       Cu457   2.006       .  S
O449        C459   1.278       .  A
O450       Cu457   2.007   1_545  S
O451       Cu457   2.009       .  S
O451        C461   1.279       .  A
O452        C462   1.279       .  A
O453       Cu458   2.010       .  S
O453        C462   1.277       .  A
O454        C461   1.276       .  A
O455       Cu458   2.004   1_545  S
O455        C460   1.278       .  A
O456       Cu458   2.005       .  S
C460        C881   1.485       .  S
C461        C858   1.489       .  S
C462        C871   1.493       .  S
O463       Cu471   2.008       .  S
O463        C473   1.276       .  A
O464       Cu471   2.008   1_545  S
O464        C474   1.278       .  A
O465       Cu471   2.009       .  S
O465        C475   1.276       .  A
O466       Cu471   2.009       .  S
O466        C476   1.277       .  A
O467       Cu472   2.008       .  S
O467        C476   1.279       .  A
O468       Cu472   2.009       .  S
O468        C475   1.279       .  A
O469       Cu472   2.012   1_545  S
O469        C474   1.277       .  A
O470       Cu472   2.013       .  S
O470        C473   1.279       .  A
Cu471      Cu472   2.363       .  S
C473        C848   1.492       .  S
C474        C841   1.485       .  S
C475        C868   1.492       .  S
C476        C861   1.490   1_565  S
N477        N478   1.322       .  A
N477        C481   1.346       .  A
N477       Cu485   2.082       .  S
N478        C479   1.344       .  A
N478       Cu484   2.069       .  S
C479        C480   1.384       .  A
C479        H482   1.081       .  S
C480        C831   1.483       .  S
C480        C481   1.387       .  A
C481        H483   1.082       .  S
Cu484       N487   2.069       .  S
Cu485       N495   2.081       .  S
Cu486       N488   2.066       .  S
Cu486       N494   2.067       .  S
N487        N488   1.320       .  A
N487        C491   1.343       .  A
N488        C489   1.343       .  A
C489        C490   1.386       .  A
C489        H492   1.081       .  S
C490        C878   1.482       .  S
C490        C491   1.386       .  A
C491        H493   1.082       .  S
N494        N495   1.322       .  A
N494        C498   1.343       .  A
N495        C496   1.346       .  A
C496        C497   1.387       .  A
C496        H499   1.082       .  S
C497        C818   1.481       .  S
C497        C498   1.383       .  A
C498        H500   1.081       .  S
N501        N502   1.321       .  A
N501        C505   1.344       .  A
N501       Cu509   2.071       .  S
N502        C503   1.344       .  A
N502       Cu508   2.075       .  S
C503        C504   1.387       .  A
C503        H506   1.082       .  S
C504        C798   1.484       .  S
C504        C505   1.386       .  A
C505        H507   1.081       .  S
Cu508       N511   2.075       .  S
Cu509       N519   2.071       .  S
Cu510       N512   2.071       .  S
Cu510       N518   2.071       .  S
N511        N512   1.320       .  A
N511        C515   1.345       .  A
N512        C513   1.344       .  A
C513        C514   1.388       .  A
C513        H516   1.080       .  S
C514        C838   1.488       .  S
C514        C515   1.389       .  A
C515        H517   1.082       .  S
N518        N519   1.321       .  A
N518        C522   1.343       .  A
N519        C520   1.345       .  A
C520        C521   1.387       .  A
C520        H523   1.081       .  S
C521        C808   1.484       .  S
C521        C522   1.386       .  A
C522        H524   1.082       .  S
N525        N526   1.321       .  A
N525        C529   1.345       .  A
N525       Cu533   2.073       .  S
N526        C527   1.343       .  A
N526       Cu532   2.068       .  S
C527        C528   1.384       .  A
C527        H530   1.082       .  S
C528        C791   1.481       .  S
C528        C529   1.386       .  A
C529        H531   1.081       .  S
Cu532       N535   2.067       .  S
Cu533       N543   2.073       .  S
Cu534       N536   2.069       .  S
Cu534       N542   2.069       .  S
N535        N536   1.321       .  A
N535        C539   1.344       .  A
N536        C537   1.344       .  A
C537        C538   1.385       .  A
C537        H540   1.081       .  S
C538        C891   1.480       .  S
C538        C539   1.385       .  A
C539        H541   1.082       .  S
N542        N543   1.321       .  A
N542        C546   1.343       .  A
N543        C544   1.345       .  A
C544        C545   1.387       .  A
C544        H547   1.081       .  S
C545        C778   1.482       .  S
C545        C546   1.385       .  A
C546        H548   1.082       .  S
N549        N550   1.321       .  A
N549        C553   1.345       .  A
N549       Cu557   2.070       .  S
N550        C551   1.344       .  A
N550       Cu556   2.074       .  S
C551        C552   1.386       .  A
C551        H554   1.082       .  S
C552        C768   1.482       .  S
C552        C553   1.386       .  A
C553        H555   1.081       .  S
Cu556       N559   2.074       .  S
Cu557       N567   2.070       .  S
Cu558       N560   2.079       .  S
Cu558       N566   2.079       .  S
N559        N560   1.321       .  A
N559        C563   1.344       .  A
N560        C561   1.345       .  A
C561        C562   1.389       .  A
C561        H564   1.082       .  S
C562        C851   1.490       .  S
C562        C563   1.388       .  A
C563        H565   1.080       .  S
N566        N567   1.321       .  A
N566        C570   1.345       .  A
N567        C568   1.344       .  A
C568        C569   1.385       .  A
C568        H571   1.081       .  S
C569        C758   1.484       .  S
C569        C570   1.387       .  A
C570        H572   1.082       .  S
N573        N574   1.322       .  A
N573        C577   1.345       .  A
N573       Cu581   2.073       .  S
N574        C575   1.343       .  A
N574       Cu580   2.067       .  S
C575        C576   1.383       .  A
C575        H578   1.082       .  S
C576        C788   1.479       .  S
C576        C577   1.386       .  A
C577        H579   1.081       .  S
Cu580       N583   2.067       .  S
Cu581       N591   2.073   1_655  S
Cu582       N584   2.071       .  S
Cu582       N590   2.071       .  S
N583        N584   1.320   1_655  A
N583        C587   1.343       .  A
N584        C585   1.344       .  A
C585        C586   1.386   1_455  A
C585        H588   1.082       .  S
C586        C751   1.482       .  S
C586        C587   1.385       .  A
C587        H589   1.081       .  S
N590        N591   1.321       .  A
N590        C594   1.343       .  A
N591        C592   1.345       .  A
C592        C593   1.387       .  A
C592        H595   1.080       .  S
C593        C781   1.485       .  S
C593        C594   1.386       .  A
C594        H596   1.082       .  S
N597        N598   1.321       .  A
N597        C601   1.344       .  A
N597       Cu605   2.071       .  S
N598        C599   1.344       .  A
N598       Cu604   2.074       .  S
C599        C600   1.386       .  A
C599        H602   1.082       .  S
C600        C771   1.483       .  S
C600        C601   1.386       .  A
C601        H603   1.081       .  S
Cu604       N607   2.074       .  S
Cu605       N615   2.071   1_655  S
Cu606       N608   2.076       .  S
Cu606       N614   2.076       .  S
N607        N608   1.321   1_655  A
N607        C611   1.344       .  A
N608        C609   1.345       .  A
C609        C610   1.388   1_455  A
C609        H612   1.082       .  S
C610        C738   1.487       .  S
C610        C611   1.387       .  A
C611        H613   1.080       .  S
N614        N615   1.321       .  A
N614        C618   1.345       .  A
N615        C616   1.344       .  A
C616        C617   1.386       .  A
C616        H619   1.081       .  S
C617        C761   1.483       .  S
C617        C618   1.387       .  A
C618        H620   1.082       .  S
N621        N622   1.322       .  A
N621        C625   1.347       .  A
N621       Cu629   2.085   1_455  S
N622        C623   1.342       .  A
N622       Cu628   2.068       .  S
C623        C624   1.385       .  A
C623        H626   1.080       .  S
C624        C828   1.487       .  S
C624        C625   1.390       .  A
C625        H627   1.082       .  S
Cu628       N631   2.067       .  S
Cu629       N639   2.085       .  S
Cu630       N632   2.067       .  S
Cu630       N638   2.068       .  S
N631        N632   1.318   1_455  A
N631        C635   1.343       .  A
N632        C633   1.343       .  A
C633        C634   1.389   1_655  A
C633        H636   1.082       .  S
C634        C731   1.490       .  S
C634        C635   1.389       .  A
C635        H637   1.079       .  S
N638        N639   1.322       .  A
N638        C642   1.343       .  A
N639        C640   1.347       .  A
C640        C641   1.389       .  A
C640        H643   1.082       .  S
C641        C821   1.485       .  S
C641        C642   1.384       .  A
C642        H644   1.081       .  S
N645        N646   1.321       .  A
N645        C649   1.344       .  A
N645       Cu653   2.070   1_455  S
N646        C647   1.344       .  A
N646       Cu652   2.069       .  S
C647        C648   1.385       .  A
C647        H650   1.082       .  S
C648        C811   1.480       .  S
C648        C649   1.385       .  A
C649        H651   1.081       .  S
Cu652       N655   2.070       .  S
Cu653       N663   2.070       .  S
Cu654       N656   2.076       .  S
Cu654       N662   2.076       .  S
N655        N656   1.321   1_455  A
N655        C659   1.344       .  A
N656        C657   1.345       .  A
C657        C658   1.387       .  A
C657        H660   1.082       .  S
C658        C718   1.483       .  S
C658        C659   1.385   1_655  A
C659        H661   1.081       .  S
N662        N663   1.322       .  A
N662        C666   1.345       .  A
N663        C664   1.344       .  A
C664        C665   1.385       .  A
C664        H667   1.081       .  S
C665        C801   1.481       .  S
C665        C666   1.386       .  A
C666        H668   1.082       .  S
O669       Cu677   2.011       .  S
O669        C679   1.279       .  A
O670       Cu677   2.012       .  S
O670        C680   1.277       .  A
O671       Cu677   2.005       .  S
O671        C681   1.276       .  A
O672        C682   1.278       .  A
O673       Cu678   2.013   1_556  S
O673        C682   1.277   1_455  A
O674        C681   1.279   1_455  A
O675        C680   1.278   1_455  A
O676        C679   1.276   1_455  A
C679        C748   1.481       .  S
C680        C728   1.485       .  S
C681        C711   1.492       .  S
C682        C701   1.490       .  S
O683       Cu691   2.006       .  S
O683        C693   1.278       .  A
O684       Cu691   2.006       .  S
O684        C694   1.276       .  A
O685       Cu691   2.012       .  S
O685        C695   1.277       .  A
O686       Cu691   2.012       .  S
O686        C696   1.279       .  A
O687       Cu692   2.005       .  S
O687        C696   1.275   1_455  A
O688       Cu692   2.005       .  S
O688        C695   1.278   1_455  A
O689       Cu692   2.012       .  S
O689        C694   1.279   1_455  A
O690       Cu692   2.013       .  S
O690        C693   1.277   1_455  A
Cu691      Cu692   2.363   1_655  S
C693        C741   1.491       .  S
C694        C721   1.485       .  S
C695        C698   1.490       .  S
C696        C708   1.492       .  S
C697        C698   1.407   1_455  A
C697        C702   1.399       .  A
C697        H704   1.083       .  S
C698        C699   1.415       .  A
C699        C700   1.399       .  A
C699       Br706   1.923       .  S
C700        C701   1.407       .  A
C700        H705   1.083       .  S
C701        C702   1.415   1_655  A
C702       Br703   1.922       .  S
C707        C708   1.406       .  A
C707        C712   1.399       .  A
C707        H714   1.083       .  S
C708        C709   1.417   1_655  A
C709        C710   1.399       .  A
C709       Br716   1.923       .  S
C710        C711   1.406   1_455  A
C710        H715   1.083       .  S
C711        C712   1.417       .  A
C712       Br713   1.923       .  S
C717        C718   1.404       .  A
C717        C722   1.399       .  A
C717        H724   1.083       .  S
C718        C719   1.412   1_655  A
C719        C720   1.399       .  A
C719       Br726   1.920       .  S
C720        C721   1.405   1_455  A
C720        H725   1.084       .  S
C721        C722   1.415       .  A
C722       Br723   1.922       .  S
C727        C732   1.398       .  A
C727        H734   1.084       .  S
C728        C729   1.413       .  A
C729        C730   1.399       .  A
C729       Br736   1.922       .  S
C730        C731   1.407   1_655  A
C730        H735   1.082       .  S
C732       Br733   1.920       .  S
C737        C738   1.405   1_455  A
C737        C742   1.400       .  A
C737        H744   1.083       .  S
C738        C739   1.413       .  A
C739        C740   1.399       .  A
C739       Br746   1.921       .  S
C740        C741   1.407       .  A
C740        H745   1.083       .  S
C741        C742   1.416   1_655  A
C742       Br743   1.922       .  S
C747        C752   1.399       .  A
C747        H754   1.084       .  S
C748        C749   1.413   1_655  A
C749        C750   1.398       .  A
C749       Br756   1.922       .  S
C750        C751   1.404   1_455  A
C750        H755   1.083       .  S
C752       Br753   1.920       .  S
C757        C758   1.405       .  A
C757        C762   1.399       .  A
C757        H764   1.083       .  S
C758        C759   1.412       .  A
C759        C760   1.399       .  A
C759       Br766   1.920       .  S
C760        C761   1.404       .  A
C760        H765   1.083       .  S
C761        C762   1.412       .  A
C762       Br763   1.920       .  S
C767        C768   1.404       .  A
C767        C772   1.399       .  A
C767        H774   1.083       .  S
C768        C769   1.412       .  A
C769        C770   1.399       .  A
C769       Br776   1.920       .  S
C770        C771   1.405       .  A
C770        H775   1.083       .  S
C771        C772   1.412       .  A
C772       Br773   1.920       .  S
C777        C778   1.404       .  A
C777        C782   1.398       .  A
C777        H784   1.083       .  S
C779        C780   1.398       .  A
C779       Br786   1.920       .  S
C780        H785   1.083       .  S
C781        C782   1.414       .  A
C782       Br783   1.920       .  S
C787        C792   1.398       .  A
C787        H794   1.083       .  S
C788        C789   1.411       .  A
C789        C790   1.398       .  A
C789       Br796   1.920       .  S
C790        C791   1.405       .  A
C790        H795   1.083       .  S
C792       Br793   1.920       .  S
C797        C798   1.405       .  A
C797        C802   1.398       .  A
C797        H804   1.083       .  S
C798        C799   1.413       .  A
C799        C800   1.399       .  A
C799       Br806   1.920       .  S
C800        C801   1.404       .  A
C800        H805   1.083       .  S
C801        C802   1.411       .  A
C802       Br803   1.920       .  S
C807        C808   1.405       .  A
C807        C812   1.398       .  A
C807        H814   1.083       .  S
C808        C809   1.413       .  A
C809        C810   1.399       .  A
C809       Br816   1.920       .  S
C810        C811   1.404       .  A
C810        H815   1.083       .  S
C811        C812   1.410       .  A
C812       Br813   1.920       .  S
C817        C822   1.399       .  A
C817        H824   1.084       .  S
C818        C819   1.412       .  A
C819        C820   1.400       .  A
C819       Br826   1.920       .  S
C820        C821   1.405       .  A
C820        H825   1.083       .  S
C822       Br823   1.920       .  S
C827        C832   1.400       .  A
C827        H834   1.083       .  S
C828        C829   1.415       .  A
C829        C830   1.398       .  A
C829       Br836   1.920       .  S
C830        C831   1.402       .  A
C830        H835   1.084       .  S
C832       Br833   1.920       .  S
C837        C838   1.406       .  A
C837        C842   1.400       .  A
C837        H844   1.083       .  S
C838        C839   1.415       .  A
C839        C840   1.399       .  A
C839       Br846   1.920       .  S
C840        C841   1.404       .  A
C840        H845   1.084       .  S
C841        C842   1.413       .  A
C842       Br843   1.921       .  S
C847        C848   1.407       .  A
C847        C852   1.400       .  A
C847        H854   1.083       .  S
C848        C849   1.417       .  A
C849        C850   1.400       .  A
C849       Br856   1.923       .  S
C850        C851   1.405       .  A
C850        H855   1.083       .  S
C851        C852   1.414       .  A
C852       Br853   1.920       .  S
C857        C858   1.406   1_545  A
C857        C862   1.399       .  A
C857        H864   1.083       .  S
C858        C859   1.416       .  A
C859        C860   1.399       .  A
C859       Br866   1.922       .  S
C860        C861   1.406   1_565  A
C860        H865   1.083       .  S
C861        C862   1.416       .  A
C862       Br863   1.923       .  S
C867        C868   1.407   1_545  A
C867        C872   1.399       .  A
C867        H874   1.083       .  S
C868        C869   1.416       .  A
C869        C870   1.399       .  A
C869       Br876   1.923       .  S
C870        C871   1.407       .  A
C870        H875   1.083       .  S
C871        C872   1.417   1_565  A
C872       Br873   1.923       .  S
C877        C882   1.399       .  A
C877        H884   1.083       .  S
C878        C879   1.412       .  A
C879        C880   1.398       .  A
C879       Br886   1.920       .  S
C880        C881   1.406       .  A
C880        H885   1.083       .  S
C882       Br883   1.922       .  S
C887        C888   1.404       .  A
C887        C892   1.398       .  A
C887        H894   1.084       .  S
C889        C890   1.398       .  A
C889       Br896   1.921       .  S
C890        H895   1.083       .  S
C891        C892   1.412       .  A
C892       Br893   1.920       .  S
