geometry optimzed in LAMMPS
_audit_creation_date              2020-12-01 
_audit_creation_method            'lammps2cif' 
_symmetry_space_group_name_H-M    'P1' 
_symmetry_Int_Tables_number       1 
_symmetry_cell_setting            triclinic 
loop_ 
_symmetry_equiv_pos_as_xyz 
  x,y,z 
_cell_length_a                    52.31635081 
_cell_length_b                    52.21070251956283 
_cell_length_c                    67.8989228274663 
_cell_angle_alpha                 89.94424728195123 
_cell_angle_beta                  90.06644531371451 
_cell_angle_gamma                 119.67009569107195 
loop_ 
_atom_site_label 
_atom_site_type_symbol 
_atom_site_fract_x 
_atom_site_fract_y 
_atom_site_fract_z 
_atom_site_charge 
Zn1        Zn  0.85493115  0.15773577  0.19079354     1.49700
Zn2        Zn  0.85828265  0.21580171  0.17268312     1.49400
Zn3        Zn  0.85064083  0.16356611  0.14449323     1.49100
Zn4        Zn  0.79737354  0.15460407  0.17162378     1.49500
O5          O  0.84025700  0.17296366  0.16996896    -1.83400
O6          O  0.88375965  0.19046620  0.20849161    -0.74000
O7          O  0.88339178  0.23699101  0.14906401    -0.73900
O8          O  0.87089885  0.13972381  0.14737867    -0.73400
O9          O  0.88438341  0.23019962  0.19650291    -0.74100
O10         O  0.87468772  0.13602195  0.17957718    -0.73600
O11         O  0.87799302  0.20027510  0.12991984    -0.74200
O12         O  0.77778498  0.13193661  0.14691453    -0.73600
O13         O  0.82738280  0.22790510  0.17573644    -0.74400
O14         O  0.81504443  0.14039160  0.12745115    -0.73800
O15         O  0.78523650  0.18545315  0.17456579    -0.74200
O16         O  0.78144438  0.12695395  0.19493332    -0.74100
O17         O  0.82150437  0.12941044  0.20790941    -0.73900
C18         C  0.89282502  0.21804758  0.20920739     0.77900
C19         C  0.88917170  0.22770455  0.13327120     0.78300
C20         C  0.87915824  0.13046988  0.16203493     0.77300
C21         C  0.78751027  0.12892680  0.13041381     0.77700
C22         C  0.79938208  0.21341588  0.17613297     0.78800
C23         C  0.79379909  0.11919846  0.20799602     0.77900
C24         C  0.03260542  0.33555736  0.31880569     0.03900
C25         C  0.02614694  0.34904218  0.33443595    -0.12300
C26         C  0.04646471  0.36262479  0.34984481     0.01400
C27         C  0.07280999  0.36162498  0.34980683    -0.10800
C28         C  0.07937209  0.34828873  0.33423124     0.03800
C29         C  0.05931658  0.33542564  0.31876947    -0.10200
H30         H  0.00551740  0.34922141  0.33448786     0.09400
H31         H  0.08818371  0.37111818  0.36192426     0.07000
H32         H  0.06413185  0.32447223  0.30697082     0.06800
C33         C  0.67624726  0.97907834  0.31728313     0.03900
C34         C  0.66607636  0.98594261  0.33448215    -0.12300
C35         C  0.65122591  0.96429773  0.34896193     0.01400
C36         C  0.64750115  0.93594753  0.34633663    -0.10800
C37         C  0.65807166  0.92907896  0.32929599     0.03800
C38         C  0.67239627  0.95072892  0.31486000    -0.10200
H39         H  0.66931557  0.00795283  0.33644679     0.09400
H40         H  0.63638569  0.91924523  0.35753602     0.07000
H41         H  0.68065370  0.94552592  0.30170482     0.06800
C42         C  0.98225550  0.36079633  0.01724047     0.03900
C43         C  0.97969523  0.38623285  0.01645947    -0.12300
C44         C  0.99011936  0.40504612  0.00011408     0.01400
C45         C  0.00355654  0.39835833  0.98462550    -0.10800
C46         C  0.00582172  0.37269619  0.98510973     0.03800
C47         C  0.99494275  0.35380780  0.00144571    -0.10200
H48         H  0.96961298  0.39137760  0.02863175     0.09400
H49         H  0.01263040  0.41333358  0.97225354     0.07000
H50         H  0.99719316  0.33427348  0.00216454     0.06800
C51         C  0.64897798  0.01592108  0.01884844     0.03900
C52         C  0.62159875  0.01480840  0.01886720    -0.12300
C53         C  0.60066415  0.99934013  0.00421425     0.01400
C54         C  0.60727337  0.98493261  0.98937512    -0.10800
C55         C  0.63455456  0.98598351  0.98904430     0.03800
C56         C  0.65554327  0.00185608  0.00361695    -0.10200
H57         H  0.61655377  0.02605588  0.03032838     0.09400
H58         H  0.59120198  0.97297210  0.97797989     0.07000
H59         H  0.67687236  0.00320419  0.00307571     0.06800
Zn60       Zn  0.51366579  0.48585238  0.47229009     1.49700
Zn61       Zn  0.45778547  0.47586410  0.49829370     1.49400
Zn62       Zn  0.51423429  0.48193958  0.51933531     1.49100
Zn63       Zn  0.51777039  0.53846065  0.49815573     1.49500
O64         O  0.50082863  0.49556242  0.49693257    -1.83400
O65         O  0.47829806  0.45708639  0.45648589    -0.74000
O66         O  0.44159922  0.45050968  0.52262980    -0.73900
O67         O  0.53871532  0.46437785  0.51034435    -0.73400
O68         O  0.43993525  0.45057238  0.47430528    -0.74100
O69         O  0.53980807  0.46812013  0.47780711    -0.73600
O70         O  0.48095724  0.45257724  0.53639967    -0.74200
O71         O  0.54356888  0.55564142  0.52229488    -0.73600
O72         O  0.44384958  0.50549989  0.49881881    -0.74400
O73         O  0.53943305  0.51572355  0.53698009    -0.73800
O74         O  0.48546943  0.54850511  0.49914236    -0.74200
O75         O  0.54071332  0.55876637  0.47357617    -0.74100
O76         O  0.53621098  0.52195841  0.45493553    -0.73900
C77         C  0.45058968  0.44547521  0.45891558     0.77900
C78         C  0.45337215  0.44304102  0.53625102     0.78300
C79         C  0.54760481  0.46077934  0.49368795     0.77300
C80         C  0.54949395  0.54343647  0.53649331     0.77700
C81         C  0.45750377  0.53354211  0.49903855     0.78800
C82         C  0.54519197  0.54932220  0.45739453     0.77900
Zn83       Zn  0.69097719  0.84431656  0.86096328     1.49700
Zn84       Zn  0.69884523  0.84740157  0.81486430     1.49400
Zn85       Zn  0.64533747  0.79041555  0.83442163     1.49100
Zn86       Zn  0.64477887  0.85166868  0.83432110     1.49500
O87         O  0.66981717  0.83342049  0.83603755    -1.83400
O88         O  0.73476927  0.86524521  0.85748353    -0.74000
O89         O  0.69298301  0.81368928  0.79748764    -0.73900
O90         O  0.64906159  0.77119117  0.85922446    -0.73400
O91         O  0.74084422  0.86774246  0.82517257    -0.74100
O92         O  0.67985447  0.80894403  0.87763801    -0.73600
O93         O  0.65608555  0.77380159  0.81089857    -0.74200
O94         O  0.60179919  0.82060407  0.83136655    -0.73600
O95         O  0.69383312  0.87596437  0.79771655    -0.74400
O96         O  0.60255381  0.77855642  0.83155375    -0.73800
O97         O  0.65625461  0.87856207  0.81062508    -0.74200
O98         O  0.64867176  0.87588105  0.85875743    -0.74100
O99         O  0.68134962  0.87072165  0.87655118    -0.73900
C100        C  0.75157399  0.87320406  0.84251693     0.77900
C101        C  0.67549486  0.78596412  0.79749972     0.78300
C102        C  0.66320144  0.78140826  0.87525451     0.77300
C103        C  0.58839992  0.79252465  0.83046856     0.77700
C104        C  0.67607127  0.88603605  0.79748860     0.78800
C105        C  0.66437646  0.88139250  0.87423558     0.77900
C106        C  0.68458982  0.65238901  0.64986095     0.03900
C107        C  0.71333791  0.65702571  0.64869339    -0.12300
C108        C  0.73363907  0.67178382  0.66374989     0.01400
C109        C  0.72530292  0.68253048  0.67996877    -0.10800
C110        C  0.69679013  0.67860999  0.68124435     0.03800
C111        C  0.67643895  0.66334793  0.66615249    -0.10200
H112        H  0.72001459  0.64918083  0.63600562     0.09400
H113        H  0.74104617  0.69389741  0.69165682     0.07000
H114        H  0.65417620  0.65956136  0.66723513     0.06800
C115        C  0.70344655  0.02212923  0.68387136     0.03900
C116        C  0.72940110  0.04953806  0.68375463    -0.12300
C117        C  0.73563668  0.06916517  0.66801760     0.01400
C118        C  0.71581221  0.06112955  0.65228591    -0.10800
C119        C  0.68983469  0.03377570  0.65218594     0.03800
C120        C  0.68357574  0.01445106  0.66812697    -0.10200
H121        H  0.74483490  0.05553169  0.69587273     0.09400
H122        H  0.72063209  0.07622258  0.64006919     0.07000
H123        H  0.66337394  0.99341797  0.66823025     0.06800
C124        C  0.62144676  0.63915730  0.98708763     0.03900
C125        C  0.59400292  0.61323237  0.98725683    -0.12300
C126        C  0.58677947  0.59239924  0.00237270     0.17600
C127        C  0.60736662  0.59772931  0.01732438    -0.10800
C128        C  0.63451528  0.62379698  0.01742706     0.03800
C129        C  0.64151899  0.64450466  0.00236884    -0.10200
H130        H  0.57839226  0.60916077  0.97551323     0.09400
H131        H  0.60248714  0.58145384  0.02876053     0.07000
H132        H  0.66260331  0.66466018  0.00250580     0.06800
Zn133      Zn  0.03007501  0.55064145  0.50665301     1.49700
Zn134      Zn  0.98350382  0.49840097  0.47985557     1.49400
Zn135      Zn  0.02799618  0.48777585  0.50626513     1.49100
Zn136      Zn  0.97687714  0.49374161  0.52646422     1.49500
O137        O  0.00479393  0.50778026  0.50480708    -1.83400
O138        O  0.02573781  0.57127780  0.48279626    -0.74000
O139        O  0.99530206  0.47499087  0.46255125    -0.73900
O140        O  0.07080687  0.51784571  0.50814799    -0.73400
O141        O  0.99178709  0.53496783  0.46479320    -0.74100
O142        O  0.07268651  0.56124962  0.50819354    -0.73600
O143        O  0.02339169  0.46441905  0.48150025    -0.74200
O144        O  0.98221058  0.46601501  0.54409952    -0.73600
O145        O  0.93997055  0.47352329  0.48403251    -0.74400
O146        O  0.01725196  0.46060009  0.52991888    -0.73800
O147        O  0.93547690  0.47147612  0.51649338    -0.74200
O148        O  0.98192477  0.52704916  0.54350221    -0.74100
O149        O  0.01983196  0.56685322  0.53048237    -0.73900
C150        C  0.00965866  0.56229384  0.46746054     0.77900
C151        C  0.01048332  0.46232681  0.46517231     0.78300
C152        C  0.08548827  0.54587759  0.50839226     0.77300
C153        C  0.99870320  0.45453640  0.54376021     0.77700
C154        C  0.92406064  0.46444528  0.49942423     0.78800
C155        C  0.00003297  0.55458699  0.54360670     0.77900
Zn156      Zn  0.85021451  0.63970020  0.16745685     1.49700
Zn157      Zn  0.78994763  0.64194481  0.16821047     1.49400
Zn158      Zn  0.84869911  0.69503605  0.18639362     1.49100
Zn159      Zn  0.84157217  0.68480996  0.14003203     1.49500
O160        O  0.83268113  0.66531084  0.16561608    -1.83400
O161        O  0.81853503  0.59712717  0.17027664    -0.74000
O162        O  0.77536593  0.65538963  0.19117094    -0.73900
O163        O  0.87800940  0.69011170  0.20305614    -0.73400
O164        O  0.77737394  0.59937661  0.17236168    -0.74100
O165        O  0.87708404  0.65006043  0.19118302    -0.73600
O166        O  0.81635297  0.69101038  0.20455365    -0.74200
O167        O  0.86166693  0.72874590  0.14281807    -0.73600
O168        O  0.76910483  0.64361834  0.14374988    -0.74400
O169        O  0.86838177  0.73628988  0.17494325    -0.73800
O170        O  0.80526729  0.67220402  0.12361855    -0.74200
O171        O  0.86842079  0.67539452  0.12474241    -0.74100
O172        O  0.87432548  0.64364061  0.14315280    -0.73900
C173        C  0.79072306  0.58459804  0.17248197     0.77900
C174        C  0.78847642  0.67465908  0.20451413     0.78300
C175        C  0.88634155  0.67093971  0.20370063     0.77300
C176        C  0.87143191  0.74622445  0.15741996     0.77700
C177        C  0.77792251  0.65601545  0.12708372     0.78800
C178        C  0.87952053  0.65880498  0.12744976     0.77900
C179        C  0.63971818  0.68631643  0.34130539     0.03900
C180        C  0.63813977  0.71236528  0.34092331    -0.12300
C181        C  0.65035402  0.73232230  0.32522933     0.01400
C182        C  0.66397262  0.72590638  0.30974387    -0.10800
C183        C  0.66635135  0.70023973  0.31002380     0.03800
C184        C  0.65406080  0.68045820  0.32591116    -0.10200
H185        H  0.62738781  0.71711133  0.35286697     0.09400
H186        H  0.67348282  0.74141445  0.29767672     0.07000
H187        H  0.65637673  0.66097932  0.32665366     0.06800
C188        C  0.02237119  0.70128241  0.31787818     0.03900
C189        C  0.05073844  0.72559047  0.31578452    -0.12300
C190        C  0.07130330  0.73378824  0.33116403     0.01400
C191        C  0.06342439  0.71666303  0.34835960    -0.10800
C192        C  0.03545066  0.69183647  0.35039912     0.03800
C193        C  0.01474387  0.68441548  0.33520214    -0.10200
H194        H  0.05670734  0.73802365  0.30215872     0.09400
H195        H  0.07914915  0.72261476  0.36028303     0.07000
H196        H  0.99307249  0.66518693  0.33661203     0.06800
Zn197      Zn  0.51898757  0.97688400  0.50370223     1.49700
Zn198      Zn  0.45625012  0.97410142  0.50300998     1.49400
Zn199      Zn  0.51131834  0.02835375  0.52311942     1.49100
Zn200      Zn  0.51025953  0.02179198  0.47660850     1.49500
O201        O  0.49908198  0.00015766  0.50156982    -1.83400
O202        O  0.48953464  0.93357275  0.50422313    -0.74000
O203        O  0.43827991  0.98361600  0.52646347    -0.73900
O204        O  0.53993882  0.02452823  0.54061475    -0.73400
O205        O  0.44595044  0.93122261  0.50430996    -0.74100
O206        O  0.54444529  0.98784199  0.52808707    -0.73600
O207        O  0.47716348  0.02152481  0.54016678    -0.74200
O208        O  0.53019864  0.06570171  0.48077530    -0.73600
O209        O  0.43713578  0.97829798  0.47843159    -0.74400
O210        O  0.53094997  0.07012089  0.51319949    -0.73800
O211        O  0.47442715  0.01000089  0.45999722    -0.74200
O212        O  0.53814214  0.01338794  0.46097460    -0.74100
O213        O  0.54463334  0.98262253  0.48012468    -0.73900
C214        C  0.46155912  0.91867064  0.50412950     0.77900
C215        C  0.44971570  0.00314173  0.53988794     0.78300
C216        C  0.55093806  0.00762226  0.54117708     0.77300
C217        C  0.53704580  0.08173107  0.49614207     0.77700
C218        C  0.44697770  0.99272200  0.46248675     0.78800
C219        C  0.54978898  0.99739734  0.46426861     0.77900
Zn220      Zn  0.20698765  0.35774834  0.83369614     1.49700
Zn221      Zn  0.14652329  0.35993906  0.83489009     1.49400
Zn222      Zn  0.14787345  0.30413580  0.81634629     1.49100
Zn223      Zn  0.15459649  0.31426186  0.86227974     1.49500
O224        O  0.16405828  0.33422809  0.83681466    -1.83400
O225        O  0.21996279  0.40118741  0.83311999    -0.74000
O226        O  0.11954771  0.34947098  0.81100177    -0.73900
O227        O  0.17927514  0.30932597  0.79737466    -0.73400
O228        O  0.17849183  0.40297268  0.83304139    -0.74100
O229        O  0.22021926  0.34795438  0.80798782    -0.73600
O230        O  0.11909393  0.30926899  0.79974426    -0.74200
O231        O  0.13185291  0.27015150  0.85937501    -0.73600
O232        O  0.12238803  0.35576955  0.85918953    -0.74400
O233        O  0.12817419  0.26243520  0.82724879    -0.73800
O234        O  0.12995679  0.32601161  0.87864671    -0.74200
O235        O  0.19139883  0.32315230  0.87703458    -0.74100
O236        O  0.22795908  0.35103496  0.85664032    -0.73900
C237        C  0.20655394  0.41595863  0.83279874     0.77900
C238        C  0.11070718  0.32832611  0.79868997     0.78300
C239        C  0.20647836  0.32783792  0.79521232     0.77300
C240        C  0.12331094  0.25252425  0.84482677     0.77700
C241        C  0.11819682  0.34192569  0.87541464     0.78800
C242        C  0.21870278  0.33717401  0.87288688     0.77900
C243        C  0.32289574  0.30549648  0.64261164     0.03900
C244        C  0.32063303  0.27762636  0.64197307    -0.12300
C245        C  0.30791310  0.25771499  0.65764012     0.01400
C246        C  0.29561469  0.26526523  0.67343206    -0.10800
C247        C  0.29691928  0.29280971  0.67398265     0.03800
C248        C  0.31111943  0.31306046  0.65866365    -0.10200
H249        H  0.32990836  0.27193623  0.62959533     0.09400
H250        H  0.28559883  0.24995869  0.68555065     0.07000
H251        H  0.31348354  0.33486347  0.65938341     0.06800
C252        C  0.97524351  0.29163634  0.68282237     0.03900
C253        C  0.94774691  0.26576249  0.68213824    -0.12300
C254        C  0.92921495  0.25934975  0.66576350     0.01400
C255        C  0.93775911  0.27965589  0.65021341    -0.10800
C256        C  0.96475436  0.30613174  0.65086266     0.03800
C257        C  0.98344575  0.31186905  0.66716181    -0.10200
H258        H  0.94062464  0.25048803  0.69441433     0.09400
H259        H  0.92289153  0.27530790  0.63795075     0.07000
H260        H  0.00443710  0.33209520  0.66760268     0.06800
Zn261      Zn  0.36040376  0.17191444  0.14630932     1.49700
Zn262      Zn  0.30713567  0.11463491  0.16558668     1.49400
Zn263      Zn  0.35346150  0.16810641  0.19246376     1.49100
Zn264      Zn  0.30764523  0.17654278  0.16617897     1.49500
O265        O  0.33193220  0.15765615  0.16763405    -1.83400
O266        O  0.35640333  0.13856315  0.12979615    -0.74000
O267        O  0.31219232  0.09480160  0.18954816    -0.73900
O268        O  0.39718392  0.19107371  0.18842883    -0.73400
O269        O  0.31797984  0.09859176  0.14170944    -0.74100
O270        O  0.40219765  0.19466936  0.15606384    -0.73600
O271        O  0.34427762  0.13201626  0.20789948    -0.74200
O272        O  0.31218031  0.20027359  0.19069573    -0.73600
O273        O  0.26408798  0.10292523  0.16389948    -0.74400
O274        O  0.34288529  0.19305187  0.20918780    -0.73800
O275        O  0.26475501  0.14583254  0.16380727    -0.74200
O276        O  0.31815348  0.20344789  0.14250861    -0.74100
O277        O  0.35355785  0.19819555  0.12836023    -0.73900
C278        C  0.33868915  0.11097319  0.12915033     0.77900
C279        C  0.32771478  0.10452879  0.20509758     0.78300
C280        C  0.41345097  0.20037792  0.17324008     0.77300
C281        C  0.32656113  0.20444552  0.20665826     0.77700
C282        C  0.25073268  0.11775317  0.16331374     0.78800
C283        C  0.33644628  0.20896178  0.12858045     0.77900
C284        C  0.30921879  0.34145048  0.34765113     0.03900
C285        C  0.28279505  0.34225267  0.34811153    -0.12300
C286        C  0.26208350  0.32963707  0.33288639     0.01400
C287        C  0.26799397  0.31615456  0.31703540    -0.10800
C288        C  0.29421884  0.31513581  0.31648597     0.03800
C289        C  0.31488548  0.32798392  0.33165578    -0.10200
H290        H  0.27820898  0.35251754  0.36044339     0.09400
H291        H  0.25234837  0.30664221  0.30506076     0.07000
H292        H  0.33539334  0.32760766  0.33091074     0.06800
C293        C  0.30393273  0.96145414  0.31231441     0.03900
C294        C  0.27864304  0.93358023  0.31211200    -0.12300
C295        C  0.27250415  0.91408954  0.32792035     0.01400
C296        C  0.29215830  0.92255251  0.34381725    -0.10800
C297        C  0.31751736  0.95039158  0.34403116     0.03800
C298        C  0.32319924  0.96992875  0.32838502    -0.10200
H299        H  0.26316838  0.92757211  0.30002442     0.09400
H300        H  0.28749324  0.90771229  0.35616335     0.07000
H301        H  0.34258439  0.99164911  0.32869673     0.06800
C302        C  0.35496849  0.36090665  0.98486270     0.03900
C303        C  0.38129306  0.38791875  0.98519706    -0.12300
C304        C  0.40128186  0.39481399  0.00068507     0.01400
C305        C  0.39501079  0.37455722  0.01597432    -0.10800
C306        C  0.36876109  0.34732589  0.01587228     0.03800
C307        C  0.34865816  0.34069443  0.00030965    -0.10200
H308        H  0.38618638  0.40371585  0.97340683     0.09400
H309        H  0.41033597  0.38024197  0.02811566     0.07000
H310        H  0.32842934  0.31967566  0.00003219     0.06800
Zn311      Zn  0.19060905  0.88074450  0.83454751     1.49700
Zn312      Zn  0.18248102  0.81990349  0.85150670     1.49400
Zn313      Zn  0.12822841  0.82162553  0.83201366     1.49100
Zn314      Zn  0.18166700  0.82839182  0.80564579     1.49500
O315        O  0.17075087  0.83782824  0.83092296    -1.83400
O316        O  0.21719529  0.89308588  0.85830221    -0.74000
O317        O  0.14782149  0.79036359  0.86690934    -0.73900
O318        O  0.11824195  0.85342903  0.83634171    -0.73400
O319        O  0.20872470  0.85024053  0.87085262    -0.74100
O320        O  0.16114778  0.89469856  0.83877526    -0.73600
O321        O  0.10989025  0.79280343  0.85440233    -0.74200
O322        O  0.14611862  0.80447196  0.78882499    -0.73600
O323        O  0.20488083  0.80085489  0.84079752    -0.74400
O324        O  0.10920879  0.80183852  0.80657779    -0.73800
O325        O  0.20435215  0.80677387  0.80856230    -0.74200
O326        O  0.20742713  0.86526208  0.79073252    -0.74100
O327        O  0.21480701  0.90185353  0.81065867    -0.73900
C328        C  0.22122771  0.87818930  0.87156479     0.77900
C329        C  0.12063977  0.78267889  0.86700154     0.78300
C330        C  0.13312032  0.88115588  0.83882699     0.77300
C331        C  0.11901205  0.79644713  0.79090381     0.77700
C332        C  0.21220272  0.79762029  0.82349113     0.78800
C333        C  0.21901448  0.89270390  0.79426888     0.77900
C334        C  0.97874720  0.69839569  0.67857357     0.03900
C335        C  0.95221051  0.69887464  0.67787921    -0.12300
C336        C  0.93177043  0.68409865  0.66285608     0.01400
C337        C  0.93785315  0.66849790  0.64855889    -0.10800
C338        C  0.96414685  0.66750393  0.64933389     0.03800
C339        C  0.98451750  0.68253434  0.66433244    -0.10200
H340        H  0.94751612  0.71088901  0.68897786     0.09400
H341        H  0.92201784  0.65690440  0.63697116     0.07000
H342        H  0.00461269  0.68136808  0.66514445     0.06800
C343        C  0.30947574  0.02509384  0.67721254     0.03900
C344        C  0.30745716  0.05085818  0.67640374    -0.12300
C345        C  0.31754509  0.06938528  0.65992954     0.01400
C346        C  0.33050022  0.06234247  0.64428465    -0.10800
C347        C  0.33316936  0.03683819  0.64499021     0.03800
C348        C  0.32275779  0.01842141  0.66160704    -0.10200
H349        H  0.29785683  0.05647249  0.68863358     0.09400
H350        H  0.33879111  0.07688058  0.63164908     0.07000
H351        H  0.32511715  0.99896602  0.66246444     0.06800
C352        C  0.01518575  0.65004834  0.98133314     0.03900
C353        C  0.01333696  0.62230253  0.98084185    -0.12300
C354        C  0.00008695  0.60234603  0.99637789     0.01400
C355        C  0.98839852  0.61012685  0.01228194    -0.10800
C356        C  0.98981003  0.63762477  0.01289363     0.03800
C357        C  0.00342828  0.65768404  0.99740676    -0.10200
H358        H  0.02206911  0.61621723  0.96834479     0.09400
H359        H  0.97805345  0.59462345  0.02425842     0.07000
H360        H  0.00404650  0.67874804  0.99752321     0.06800
C361        C  0.35555056  0.97272761  0.98745607     0.03900
C362        C  0.34827706  0.98617388  0.00261731    -0.12300
C363        C  0.36841117  0.00137000  0.01773531     0.01400
C364        C  0.39599588  0.00298672  0.01760966    -0.10800
C365        C  0.40334316  0.98930754  0.00266573     0.03800
C366        C  0.38305672  0.97416852  0.98759705    -0.10200
H367        H  0.32681384  0.98456494  0.00271003     0.09400
H368        H  0.41175196  0.01481110  0.02920966     0.07000
H369        H  0.38894318  0.96414322  0.97577607     0.06800
C370        C  0.98559873  0.96838444  0.14632863     0.80900
N371        N  0.97053742  0.98340656  0.14685590    -0.77400
C372        C  0.98476268  0.01323163  0.14867809     0.83400
N373        N  0.01461938  0.02819368  0.14997242    -0.77300
C374        C  0.02997597  0.01355378  0.14917220     0.83500
N375        N  0.01543549  0.98378122  0.14733262    -0.79000
C376        C  0.70350396  0.34680606  0.48636611     0.80900
N377        N  0.68699478  0.31694183  0.48590269    -0.77400
C378        C  0.65714007  0.30346282  0.48523618     0.83400
N379        N  0.64385678  0.32019136  0.48542319    -0.77300
C380        C  0.66009049  0.35006778  0.48583421     0.83500
N381        N  0.68981326  0.36311516  0.48641580    -0.79000
C382        C  0.30716603  0.65210880  0.50046365     0.80900
N383        N  0.32141304  0.63644689  0.49946286    -0.77400
C384        C  0.35106591  0.65013825  0.49757419     0.83400
N385        N  0.36666112  0.68011873  0.49698807    -0.77300
C386        C  0.35262447  0.69616241  0.49774087     0.83500
N387        N  0.32285101  0.68196567  0.49947400    -0.79000
C388        C  0.97259069  0.98428742  0.86244570     0.80900
N389        N  0.98929288  0.97098704  0.86139705    -0.77400
C390        C  0.01908835  0.98722299  0.86067516     0.83400
N391        N  0.03227339  0.01697457  0.86121135    -0.77300
C392        C  0.01626109  0.03082131  0.86251731     0.83500
N393        N  0.98637639  0.01433541  0.86291320    -0.79000
C394        C  0.36649867  0.68289371  0.81741504     0.80900
N395        N  0.35103426  0.65317092  0.81990627    -0.77400
C396        C  0.32115747  0.63879205  0.82026591     0.83400
N397        N  0.30686518  0.65438188  0.81818459    -0.77300
C398        C  0.32194072  0.68408310  0.81559767     0.83500
N399        N  0.35184184  0.69814322  0.81532355    -0.79000
C400        C  0.63537018  0.31745902  0.18484810     0.80900
N401        N  0.65082971  0.30282272  0.18550756    -0.77400
C402        C  0.68071077  0.31773187  0.18618507     0.83400
N403        N  0.69507734  0.34764415  0.18599604    -0.77300
C404        C  0.68010690  0.36265101  0.18534980     0.83500
N405        N  0.65029091  0.34737554  0.18459830    -0.79000
C406        C  0.30663097  0.97973268  0.72155950    -0.01300
C407        C  0.27788776  0.96982401  0.72854122     0.07300
C408        C  0.25931525  0.97748142  0.71840239    -0.07300
C409        C  0.26896406  0.99489584  0.70145613     0.04700
C410        C  0.29796909  0.00540431  0.69458177    -0.14500
C411        C  0.31647772  0.99745275  0.70468222    -0.07800
C412        C  0.26614936  0.95084527  0.74613977     0.05700
C413        C  0.26056618  0.96244671  0.76313616    -0.08900
C414        C  0.24637033  0.94444419  0.77938214     0.00700
C415        C  0.23707914  0.91391448  0.77859216     0.00500
C416        C  0.24386102  0.90278219  0.76168980    -0.12500
C417        C  0.25817137  0.92088325  0.74557643     0.01000
C418        C  0.24105537  0.95798332  0.79625052     0.40300
C419        C  0.26330555  0.90795294  0.72829755     0.36900
C420        C  0.32639367  0.97226881  0.73162053     0.36700
C421        C  0.24831450  0.00076547  0.69103941     0.37400
N422        N  0.23693532  0.96897619  0.80974840    -0.43400
N423        N  0.26749163  0.89761801  0.71446937    -0.43800
N424        N  0.23178323  0.00548475  0.68269458    -0.41200
N425        N  0.34213354  0.96614110  0.73967850    -0.42600
H426        H  0.33877098  0.00545555  0.69954295     0.13500
H427        H  0.23703636  0.96942528  0.72361617     0.10000
H428        H  0.26680477  0.98560813  0.76351531     0.11100
H429        H  0.23736120  0.87959899  0.76076762     0.16900
C430        C  0.05768379  0.77653203  0.75445616    -0.01300
C431        C  0.05945130  0.75517779  0.74278887     0.07300
C432        C  0.08096262  0.74737494  0.74686919    -0.07300
C433        C  0.10051989  0.76034066  0.76258240     0.04700
C434        C  0.09852352  0.78146202  0.77448535    -0.14500
C435        C  0.07697317  0.78926092  0.77028845    -0.07800
C436        C  0.03868503  0.74037866  0.72644254     0.05700
C437        C  0.04891620  0.74717005  0.70702671    -0.08900
C438        C  0.02972248  0.73397838  0.69116845     0.00700
C439        C  0.99983753  0.71338082  0.69476089     0.00500
C440        C  0.98972794  0.70659246  0.71423878    -0.12500
C441        C  0.00889069  0.71987281  0.73005125     0.01000
C442        C  0.04095907  0.74271644  0.67142179     0.40300
C443        C  0.99764994  0.71184841  0.74985102     0.36900
C444        C  0.03670341  0.78613692  0.75012825     0.36700
C445        C  0.12159180  0.75076496  0.76663267     0.37400
N446        N  0.04991381  0.74968674  0.65558768    -0.43400
N447        N  0.98868777  0.70550251  0.76573218    -0.43800
N448        N  0.13844008  0.74305685  0.76992584    -0.41200
N449        N  0.01990169  0.79380603  0.74656542    -0.42600
H450        H  0.07561587  0.80585057  0.77915952     0.13500
H451        H  0.08219218  0.73081630  0.73788247     0.10000
H452        H  0.07180322  0.76310869  0.70429961     0.11100
H453        H  0.96688381  0.69061755  0.71708492     0.16900
C454        C  0.24863149  0.89397532  0.92386120    -0.01300
C455        C  0.27628928  0.91965440  0.92171811     0.07300
C456        C  0.28562750  0.93197844  0.90290587    -0.07300
C457        C  0.26784347  0.91921726  0.88635711     0.04700
C458        C  0.24040629  0.89331541  0.88850455    -0.14500
C459        C  0.23113503  0.88092159  0.90728378    -0.07800
C460        C  0.29618806  0.93344020  0.93878102     0.05700
C461        C  0.30511653  0.91652002  0.94985745    -0.08900
C462        C  0.32399742  0.92867684  0.96597580     0.00700
C463        C  0.33485806  0.95852277  0.97093556     0.00500
C464        C  0.32583518  0.97542346  0.95993008    -0.12500
C465        C  0.30658635  0.96313967  0.94399596     0.01000
C466        C  0.33071534  0.90967640  0.97767145     0.40300
C467        C  0.29736496  0.98126219  0.93350329     0.36900
C468        C  0.23743008  0.88092923  0.94291975     0.36700
C469        C  0.27883650  0.93230546  0.86728642     0.37400
N470        N  0.33561177  0.89406680  0.98702021    -0.43400
N471        N  0.28999471  0.99577595  0.92506340    -0.43800
N472        N  0.28764309  0.94275594  0.85199304    -0.41200
N473        N  0.22841932  0.87041985  0.95816932    -0.42600
H474        H  0.20993867  0.86112440  0.90903881     0.13500
H475        H  0.30707841  0.95141730  0.90112333     0.10000
H476        H  0.29718885  0.89369213  0.94593833     0.11100
H477        H  0.33395864  0.99831651  0.96376969     0.16900
C478        C  0.09421807  0.72387736  0.90623120    -0.01300
C479        C  0.07035625  0.72541755  0.91446489     0.07300
C480        C  0.06191259  0.74487680  0.90650684    -0.07300
C481        C  0.07739898  0.76328419  0.89066935     0.04700
C482        C  0.10169460  0.76206612  0.88251289    -0.14500
C483        C  0.10960159  0.74205784  0.89039423    -0.07800
C484        C  0.05451951  0.70716901  0.93169596     0.05700
C485        C  0.06726064  0.71603315  0.95039404    -0.08900
C486        C  0.05454991  0.69792831  0.96682544     0.00700
C487        C  0.02855622  0.67055540  0.96460403     0.00500
C488        C  0.01560655  0.66193503  0.94589495    -0.12500
C489        C  0.02839179  0.68004480  0.92946777     0.01000
C490        C  0.06962441  0.70706151  0.98549014     0.40300
C491        C  0.01499727  0.67002706  0.91036162     0.36900
C492        C  0.10342950  0.70394285  0.91395639     0.36700
C493        C  0.06892810  0.78428961  0.88395132     0.37400
N494        N  0.08205740  0.71445884  0.00033232    -0.43400
N495        N  0.00439833  0.66210320  0.89499911    -0.43800
N496        N  0.06219301  0.80119259  0.87864202    -0.41200
N497        N  0.11077212  0.68796879  0.92019974    -0.42600
H498        H  0.12812248  0.74081986  0.88430236     0.13500
H499        H  0.04360845  0.74611791  0.91298120     0.10000
H500        H  0.08763877  0.73670626  0.95200746     0.11100
H501        H  0.99571127  0.64087179  0.94411025     0.16900
C502        C  0.24843860  0.75207729  0.83528982    -0.01300
C503        C  0.26294058  0.75329158  0.81757796     0.07300
C504        C  0.26163181  0.76987673  0.80178377    -0.07300
C505        C  0.24553590  0.78473402  0.80327616     0.04700
C506        C  0.23014192  0.78287143  0.82091829    -0.14500
C507        C  0.23223683  0.76669620  0.83682294    -0.07800
C508        C  0.27848914  0.73626659  0.81519437     0.05700
C509        C  0.26172637  0.70557411  0.81368332    -0.08900
C510        C  0.27511694  0.68809364  0.81311963     0.00700
C511        C  0.30624902  0.70144794  0.81429317     0.00500
C512        C  0.32293904  0.73251629  0.81501257    -0.12500
C513        C  0.30935469  0.74986418  0.81546626     0.01000
C514        C  0.25596023  0.65665453  0.81134526     0.40300
C515        C  0.32745475  0.78148496  0.81697249     0.36900
C516        C  0.25016959  0.73615834  0.85217579     0.36700
C517        C  0.24587226  0.80208939  0.78659376     0.37400
N518        N  0.24035156  0.63149901  0.80990172    -0.43400
N519        N  0.34196125  0.80682696  0.81818297    -0.43800
N520        N  0.24625618  0.81603479  0.77321546    -0.41200
N521        N  0.25168360  0.72346578  0.86569799    -0.42600
H522        H  0.22098106  0.76518672  0.85054266     0.13500
H523        H  0.27303832  0.77099348  0.78820075     0.10000
H524        H  0.23791808  0.69519140  0.81324732     0.11100
H525        H  0.34673812  0.74346248  0.81573418     0.16900
C526        C  0.11562763  0.93866224  0.85832596    -0.01300
C527        C  0.08713220  0.92860723  0.85081410     0.07300
C528        C  0.07417059  0.90364259  0.83873452    -0.07300
C529        C  0.08900595  0.88831336  0.83422380     0.04700
C530        C  0.11734252  0.89777749  0.84217293    -0.14500
C531        C  0.13047793  0.92320378  0.85401042    -0.07800
C532        C  0.07072300  0.94439517  0.85457139     0.05700
C533        C  0.07811042  0.96995135  0.84375884    -0.08900
C534        C  0.06163717  0.98425894  0.84558126     0.00700
C535        C  0.03714933  0.97282467  0.85843695     0.00500
C536        C  0.02993357  0.94728330  0.86936881    -0.12500
C537        C  0.04666797  0.93316807  0.86763052     0.01000
C538        C  0.06950643  0.00972295  0.83331845     0.40300
C539        C  0.03914015  0.90748552  0.87955187     0.36900
C540        C  0.12978841  0.96449763  0.87068255     0.36700
C541        C  0.07506996  0.86379221  0.82072067     0.37400
N542        N  0.07578755  0.03010292  0.82347949    -0.43400
N543        N  0.03331234  0.88701023  0.88917560    -0.43800
N544        N  0.06392441  0.84426710  0.80981357    -0.41200
N545        N  0.14113160  0.98522468  0.88057558    -0.42600
H546        H  0.15218689  0.93075537  0.86018579     0.13500
H547        H  0.05248832  0.89637497  0.83258031     0.10000
H548        H  0.09640606  0.97832629  0.83353505     0.11100
H549        H  0.01143813  0.93856103  0.87942923     0.16900
C550        C  0.10550228  0.05762754  0.17167896    -0.01300
C551        C  0.12383305  0.05917374  0.15595925     0.07300
C552        C  0.11111810  0.04602515  0.13787777    -0.07300
C553        C  0.08054020  0.03120765  0.13535757     0.04700
C554        C  0.06224914  0.02970561  0.15105251    -0.14500
C555        C  0.07492549  0.04316333  0.16905730    -0.07800
C556        C  0.15632671  0.07449658  0.15800732     0.05700
C557        C  0.16927728  0.06169203  0.16955953    -0.08900
C558        C  0.19994411  0.07519090  0.17143465     0.00700
C559        C  0.21818625  0.10225641  0.16176916     0.00500
C560        C  0.20504726  0.11514679  0.15041714    -0.12500
C561        C  0.17445299  0.10139475  0.14832091     0.01000
C562        C  0.21196309  0.06125643  0.18385296     0.40300
C563        C  0.16210791  0.11536680  0.13625456     0.36900
C564        C  0.11761225  0.07091179  0.19052193     0.36700
C565        C  0.06841714  0.01833760  0.11642853     0.37400
N566        N  0.22154426  0.05005261  0.19381534    -0.43400
N567        N  0.15220785  0.12650727  0.12653182    -0.43800
N568        N  0.05867483  0.00811149  0.10123827    -0.41200
N569        N  0.12730445  0.08149807  0.20564393    -0.42600
H570        H  0.06085418  0.04194887  0.18118386     0.13500
H571        H  0.12517192  0.04727734  0.12572957     0.10000
H572        H  0.15534605  0.04100418  0.17704677     0.11100
H573        H  0.21875927  0.13586105  0.14289778     0.16900
C574        C  0.32111036  0.04664170  0.09502852    -0.01300
C575        C  0.34559301  0.05876830  0.08236486     0.07300
C576        C  0.36828447  0.08764052  0.08536496    -0.07300
C577        C  0.36698140  0.10477137  0.10069970     0.04700
C578        C  0.34200569  0.09312379  0.11326707    -0.14500
C579        C  0.31940077  0.06384075  0.11025970    -0.07800
C580        C  0.34864067  0.04181422  0.06601159     0.05700
C581        C  0.34500232  0.04874122  0.04662947    -0.08900
C582        C  0.35079671  0.03548840  0.03063573     0.00700
C583        C  0.36053074  0.01497941  0.03403762     0.00500
C584        C  0.36366195  0.00776800  0.05348974    -0.12500
C585        C  0.35783611  0.02101296  0.06943122     0.01000
C586        C  0.34800958  0.04443274  0.01097688     0.40300
C587        C  0.36247825  0.01377137  0.08914940     0.36900
C588        C  0.29747952  0.01673286  0.09253405     0.36700
C589        C  0.39210363  0.13385605  0.10325572     0.37400
N590        N  0.34570437  0.05156245  0.99523053    -0.43400
N591        N  0.36621216  0.00799046  0.10495948    -0.43800
N592        N  0.41236490  0.15707746  0.10526207    -0.41200
N593        N  0.27862813  0.99271184  0.09054652    -0.42600
H594        H  0.30016994  0.05434142  0.11969816     0.13500
H595        H  0.38735989  0.09671194  0.07575862     0.10000
H596        H  0.33831851  0.06506980  0.04402929     0.11100
H597        H  0.37099298  0.99196579  0.05621863     0.16900
C598        C  0.34084213  0.27399695  0.10104638    -0.01300
C599        C  0.34420203  0.26729125  0.08139914     0.07300
C600        C  0.34412024  0.24092078  0.07736246    -0.07300
C601        C  0.34125782  0.22151733  0.09247534     0.04700
C602        C  0.33796883  0.22819697  0.11214589    -0.14500
C603        C  0.33726342  0.25420438  0.11617990    -0.07800
C604        C  0.34989925  0.28807853  0.06486717     0.05700
C605        C  0.37626814  0.29848780  0.05437467    -0.08900
C606        C  0.38242485  0.31706846  0.03812556     0.00700
C607        C  0.36222917  0.32618903  0.03230890     0.00500
C608        C  0.33554702  0.31535688  0.04260746    -0.12500
C609        C  0.32914900  0.29622154  0.05867725     0.01000
C610        C  0.40894582  0.32512068  0.02714188     0.40300
C611        C  0.30083356  0.28445821  0.06812738     0.36900
C612        C  0.34260349  0.30165453  0.10617388     0.36700
C613        C  0.34135372  0.19471216  0.08732821     0.37400
N614        N  0.43016708  0.33112358  0.01842269    -0.43400
N615        N  0.27814024  0.27497595  0.07571766    -0.43800
N616        N  0.34149300  0.17327203  0.08321836    -0.41200
N617        N  0.34405233  0.32382690  0.11033280    -0.42600
H618        H  0.33510182  0.25964298  0.13129819     0.13500
H619        H  0.34671293  0.23566819  0.06227486     0.10000
H620        H  0.39195076  0.29170780  0.05876468     0.11100
H621        H  0.31975126  0.32192693  0.03812577     0.16900
C622        C  0.29750312  0.03482288  0.23549605    -0.01300
C623        C  0.31917440  0.04279537  0.25014829     0.07300
C624        C  0.34430598  0.07072078  0.24968266    -0.07300
C625        C  0.34795610  0.09102690  0.23498879     0.04700
C626        C  0.32591045  0.08341193  0.22041294    -0.14500
C627        C  0.30100271  0.05505366  0.22078365    -0.07800
C628        C  0.31587391  0.02240309  0.26627186     0.05700
C629        C  0.31801643  0.99727933  0.26198330    -0.08900
C630        C  0.31457658  0.97727488  0.27684705     0.00700
C631        C  0.30906009  0.98252086  0.29632761     0.00500
C632        C  0.30734934  0.00787865  0.30064900    -0.12500
C633        C  0.31054219  0.02773947  0.28576567     0.01000
C634        C  0.31742615  0.95193667  0.27186279     0.40300
C635        C  0.30720481  0.05283544  0.29066032     0.36900
C636        C  0.27108705  0.00635129  0.23567120     0.36700
C637        C  0.37482202  0.11914277  0.23515160     0.37400
N638        N  0.31986780  0.93174065  0.26778765    -0.43400
N639        N  0.30440606  0.07288534  0.29454384    -0.43800
N640        N  0.39637191  0.14163941  0.23531666    -0.41200
N641        N  0.24994797  0.98351890  0.23588533    -0.42600
H642        H  0.28384640  0.04882315  0.20982887     0.13500
H643        H  0.36110116  0.07662883  0.26087838     0.10000
H644        H  0.32235314  0.99333652  0.24699209     0.11100
H645        H  0.30284267  0.01177669  0.31561085     0.16900
C646        C  0.31947199  0.30217463  0.26736844    -0.01300
C647        C  0.31037468  0.27183908  0.26845856     0.07300
C648        C  0.29639419  0.25601627  0.28557994    -0.07300
C649        C  0.29104067  0.26986431  0.30138387     0.04700
C650        C  0.29976118  0.30001221  0.30015399    -0.14500
C651        C  0.31395749  0.31598073  0.28316934    -0.07800
C652        C  0.31554622  0.25605568  0.25216154     0.05700
C653        C  0.33360203  0.24375055  0.25564549    -0.08900
C654        C  0.33790990  0.22719973  0.24116257     0.00700
C655        C  0.32386254  0.22268236  0.22255208     0.00500
C656        C  0.30600294  0.23543663  0.21914244    -0.12500
C657        C  0.30162472  0.25177910  0.23373050     0.01000
C658        C  0.35641396  0.21485768  0.24622768     0.40300
C659        C  0.28185665  0.26297660  0.22966425     0.36900
C660        C  0.33506386  0.31967437  0.25043542     0.36700
C661        C  0.27656964  0.25279670  0.31872300     0.37400
N662        N  0.37119141  0.20498779  0.25046719    -0.43400
N663        N  0.26606603  0.27199841  0.22636593    -0.43800
N664        N  0.26499880  0.23919191  0.33264675    -0.41200
N665        N  0.34748910  0.33367572  0.23683611    -0.42600
H666        H  0.32085308  0.33923510  0.28233236     0.13500
H667        H  0.28953188  0.23277546  0.28652924     0.10000
H668        H  0.34417065  0.24688712  0.26987991     0.11100
H669        H  0.29491698  0.23228791  0.20512601     0.16900
C670        C  0.49439169  0.24025690  0.15965025    -0.01300
C671        C  0.50817082  0.25057869  0.17802752     0.07300
C672        C  0.49088663  0.24533905  0.19487948    -0.07300
C673        C  0.46013832  0.22940613  0.19378861     0.04700
C674        C  0.44605345  0.21805284  0.17541555    -0.14500
C675        C  0.46368345  0.22399106  0.15849526    -0.07800
C676        C  0.54062661  0.26733417  0.17998118     0.05700
C677        C  0.55425164  0.29711913  0.18526674    -0.08900
C678        C  0.58487443  0.31392530  0.18712421     0.00700
C679        C  0.60259629  0.30075913  0.18364025     0.00500
C680        C  0.58855973  0.27062459  0.17866499    -0.12500
C681        C  0.55794652  0.25394657  0.17689256     0.01000
C682        C  0.59701300  0.34436872  0.19293205     0.40300
C683        C  0.54472946  0.22299195  0.17219929     0.36900
C684        C  0.51133059  0.24679383  0.14172283     0.36700
C685        C  0.44398040  0.22587224  0.21176180     0.37400
N686        N  0.60655421  0.36875015  0.19756392    -0.43400
N687        N  0.53409681  0.19818902  0.16842849    -0.43800
N688        N  0.43121234  0.22325332  0.22621885    -0.41200
N689        N  0.52496275  0.25215805  0.12737745    -0.42600
H690        H  0.45353441  0.21597844  0.14422443     0.13500
H691        H  0.50153916  0.25376310  0.20897869     0.10000
H692        H  0.54084135  0.30730218  0.18785749     0.11100
H693        H  0.60145400  0.25994473  0.17596309     0.16900
C694        C  0.32420278  0.14192441  0.67568802    -0.01300
C695        C  0.31036191  0.14803434  0.66001754     0.07300
C696        C  0.29848823  0.12805685  0.64434025    -0.07300
C697        C  0.30059740  0.10233083  0.64398252     0.04700
C698        C  0.31499888  0.09644924  0.65948427    -0.14500
C699        C  0.32644250  0.11631410  0.67531202    -0.07800
C700        C  0.30911584  0.17575369  0.65938791     0.05700
C701        C  0.33506711  0.20217606  0.65555494    -0.08900
C702        C  0.33515809  0.22899474  0.65493984     0.00700
C703        C  0.30870176  0.22962129  0.65799201     0.00500
C704        C  0.28273253  0.20304615  0.66199602    -0.12500
C705        C  0.28278404  0.17623077  0.66273155     0.01000
C706        C  0.36296989  0.25558633  0.65193564     0.40300
C707        C  0.25582812  0.14959516  0.66745023     0.36900
C708        C  0.33578668  0.16140111  0.69243752     0.36700
C709        C  0.28694097  0.08186625  0.62793243     0.37400
N710        N  0.38524668  0.27687383  0.64946596    -0.43400
N711        N  0.23428548  0.12822409  0.67131563    -0.43800
N712        N  0.27597663  0.06540485  0.61509905    -0.41200
N713        N  0.34494084  0.17699193  0.70587732    -0.42600
H714        H  0.33727018  0.11184891  0.68737250     0.13500
H715        H  0.28765982  0.13266125  0.63234879     0.10000
H716        H  0.35538725  0.20182261  0.65320547     0.11100
H717        H  0.26237950  0.20324196  0.66452303     0.16900
C718        C  0.03031652  0.10796580  0.85152315    -0.01300
C719        C  0.06021289  0.12549289  0.85661665     0.07300
C720        C  0.07519617  0.11213470  0.86491687    -0.07300
C721        C  0.06122573  0.08154997  0.86751561     0.04700
C722        C  0.03136602  0.06361480  0.86182991    -0.14500
C723        C  0.01613852  0.07735478  0.85422798    -0.07800
C724        C  0.07638816  0.15784858  0.85340696     0.05700
C725        C  0.08490012  0.17656019  0.86975236    -0.08900
C726        C  0.10046737  0.20724802  0.86747893     0.00700
C727        C  0.10745007  0.21993404  0.84832209     0.00500
C728        C  0.09924286  0.20081003  0.83198620    -0.12500
C729        C  0.08420766  0.17012009  0.83440891     0.01000
C730        C  0.10930803  0.22468270  0.88524807     0.40300
C731        C  0.07794824  0.15157957  0.81727589     0.36900
C732        C  0.01381236  0.12095321  0.84345110     0.36700
C733        C  0.07823720  0.06949239  0.87618914     0.37400
N734        N  0.11650183  0.23827571  0.89965708    -0.43400
N735        N  0.07307884  0.13660562  0.80362306    -0.43800
N736        N  0.09198470  0.05991335  0.88305892    -0.41200
N737        N  0.00062788  0.13139435  0.83694834    -0.42600
H738        H  0.99330875  0.06413040  0.84983279     0.13500
H739        H  0.09809839  0.12568216  0.86909657     0.10000
H740        H  0.07943638  0.16706103  0.88441357     0.11100
H741        H  0.10484930  0.20976192  0.81720640     0.16900
C742        C  0.07899073  0.31435825  0.74738859    -0.01300
C743        C  0.05404648  0.31781972  0.74960644     0.07300
C744        C  0.04842039  0.32617092  0.76807700    -0.07300
C745        C  0.06690383  0.33050965  0.78426358     0.04700
C746        C  0.09124542  0.32600960  0.78211257    -0.14500
C747        C  0.09705491  0.31817324  0.76356759    -0.07800
C748        C  0.03305246  0.31135440  0.73300701     0.05700
C749        C  0.01977248  0.28324747  0.72439461    -0.08900
C750        C  0.00135739  0.27649303  0.70797600     0.00700
C751        C  0.99504545  0.29789400  0.70013954     0.00500
C752        C  0.00796596  0.32590200  0.70901032    -0.12500
C753        C  0.02691886  0.33280027  0.72521454     0.01000
C754        C  0.99049778  0.24790275  0.69896471     0.40300
C755        C  0.04056999  0.36229631  0.73314303     0.36900
C756        C  0.08676356  0.30723860  0.72857562     0.36700
C757        C  0.05956458  0.33803393  0.80306968     0.37400
N758        N  0.98182260  0.22496146  0.69180331    -0.43400
N759        N  0.05153089  0.38595553  0.73948290    -0.43800
N760        N  0.05364554  0.34402175  0.81815181    -0.41200
N761        N  0.09296337  0.30150809  0.71350530    -0.42600
H762        H  0.11599576  0.31514188  0.76166716     0.13500
H763        H  0.02915737  0.32864513  0.76995685     0.10000
H764        H  0.02437114  0.26661437  0.73031585     0.11100
H765        H  0.00327372  0.34253513  0.70323288     0.16900
C766        C  0.21758728  0.29931373  0.74644095    -0.01300
C767        C  0.24749744  0.31859397  0.74237226     0.07300
C768        C  0.26420270  0.34162626  0.75553051    -0.07300
C769        C  0.25163721  0.34543484  0.77276291     0.04700
C770        C  0.22164312  0.32561924  0.77717546    -0.14500
C771        C  0.20503498  0.30287952  0.76363331    -0.07800
C772        C  0.26183295  0.31406156  0.72488357     0.05700
C773        C  0.25305591  0.31734892  0.70593918    -0.08900
C774        C  0.26430869  0.31076564  0.68915631     0.00700
C775        C  0.28496143  0.30094175  0.69122116     0.00500
C776        C  0.29402273  0.29812944  0.71020002    -0.12500
C777        C  0.28263140  0.30453139  0.72694392     0.01000
C778        C  0.25314659  0.31277630  0.67009649     0.40300
C779        C  0.29167382  0.29998749  0.74612151     0.36900
C780        C  0.19947590  0.27511479  0.73345105     0.36700
C781        C  0.27019482  0.36990451  0.78541098     0.37400
N782        N  0.24415443  0.31433122  0.65482639    -0.43400
N783        N  0.29882065  0.29632051  0.76151898    -0.43800
N784        N  0.28517915  0.38961456  0.79545201    -0.41200
N785        N  0.18497513  0.25576988  0.72301667    -0.42600
H786        H  0.18199501  0.28749579  0.76644773     0.13500
H787        H  0.28723096  0.35660438  0.75233938     0.10000
H788        H  0.23684946  0.32437960  0.70431343     0.11100
H789        H  0.30987232  0.29065739  0.71194528     0.16900
C790        C  0.28685997  0.36690639  0.90475807    -0.01300
C791        C  0.27968852  0.34320866  0.91779322     0.07300
C792        C  0.25313194  0.31681716  0.91522005    -0.07300
C793        C  0.23345226  0.31394211  0.90024247     0.04700
C794        C  0.24011706  0.33800718  0.88758217    -0.14500
C795        C  0.26722757  0.36404866  0.88973852    -0.07800
C796        C  0.29872373  0.34599682  0.93485325     0.05700
C797        C  0.28799276  0.34494667  0.95396455    -0.08900
C798        C  0.30565533  0.34902305  0.97050883     0.00700
C799        C  0.33455929  0.35406870  0.96802435     0.00500
C800        C  0.34500328  0.35437033  0.94893040    -0.12500
C801        C  0.32732330  0.35020390  0.93240991     0.01000
C802        C  0.29419983  0.34948386  0.98976283     0.40300
C803        C  0.33893565  0.35015820  0.91314077     0.36900
C804        C  0.31355161  0.39482813  0.90707581     0.36700
C805        C  0.20701627  0.28579754  0.89789831     0.37400
N806        N  0.28504898  0.34992140  0.00519236    -0.43400
N807        N  0.34831819  0.35020978  0.89770624    -0.43800
N808        N  0.18597541  0.26313309  0.89599594    -0.41200
N809        N  0.33498334  0.41718254  0.90890380    -0.42600
H810        H  0.27261478  0.38270417  0.88014618     0.13500
H811        H  0.24769333  0.29841444  0.92507149     0.10000
H812        H  0.26603780  0.34171586  0.95591438     0.11100
H813        H  0.36712356  0.35805481  0.94694526     0.16900
C814        C  0.29678932  0.55794316  0.81355692    -0.01300
C815        C  0.27228225  0.54412263  0.82630249     0.07300
C816        C  0.26429766  0.56179097  0.83736754    -0.07300
C817        C  0.27984194  0.59258784  0.83563431     0.04700
C818        C  0.30428956  0.60635705  0.82284679    -0.14500
C819        C  0.31265910  0.58875998  0.81209139    -0.07800
C820        C  0.25501510  0.51137807  0.82845030     0.05700
C821        C  0.26945929  0.49609731  0.83444328    -0.08900
C822        C  0.25434157  0.46528679  0.83615251     0.00700
C823        C  0.22379335  0.44889380  0.83187741     0.00500
C824        C  0.20927494  0.46444044  0.82638431    -0.12500
C825        C  0.22450158  0.49525005  0.82464700     0.01000
C826        C  0.27090090  0.45146434  0.84270376     0.40300
C827        C  0.20839602  0.50970073  0.81842672     0.36900
C828        C  0.30553525  0.54097769  0.80134466     0.36700
C829        C  0.27091495  0.60955076  0.84770088     0.37400
N830        N  0.28430788  0.44054347  0.84796862    -0.43400
N831        N  0.19546525  0.52130048  0.81353846    -0.43800
N832        N  0.26378779  0.62316648  0.85737183    -0.41200
N833        N  0.31254745  0.52737816  0.79156248    -0.42600
H834        H  0.33127541  0.59910955  0.80212926     0.13500
H835        H  0.24590098  0.55145492  0.84749780     0.10000
H836        H  0.29275410  0.50837368  0.83784271     0.11100
H837        H  0.18595040  0.45249900  0.82308549     0.16900
C838        C  0.58094386  0.15732968  0.47267300    -0.01300
C839        C  0.58718832  0.17625916  0.48890197     0.07300
C840        C  0.57567120  0.16432276  0.50741014    -0.07300
C841        C  0.55860591  0.13382398  0.51011188     0.04700
C842        C  0.55311483  0.11446325  0.49399446    -0.14500
C843        C  0.56416687  0.12677676  0.47531415    -0.07800
C844        C  0.60587706  0.20864427  0.48703777     0.05700
C845        C  0.59477018  0.22469822  0.47725911    -0.08900
C846        C  0.61118053  0.25549823  0.47615703     0.00700
C847        C  0.63932128  0.27077947  0.48509004     0.00500
C848        C  0.65066570  0.25442084  0.49436984    -0.12500
C849        C  0.63419905  0.22365020  0.49543474     0.01000
C850        C  0.59885298  0.27061021  0.46528092     0.40300
C851        C  0.64684150  0.20784436  0.50508271     0.36900
C852        C  0.59218629  0.16875114  0.45329859     0.36700
C853        C  0.54689906  0.12341932  0.52956671     0.37400
N854        N  0.58898024  0.28269690  0.45652743    -0.43400
N855        N  0.65692362  0.19510149  0.51276766    -0.43800
N856        N  0.53749770  0.11522118  0.54517182    -0.41200
N857        N  0.60115894  0.17792885  0.43776933    -0.42600
H858        H  0.56018666  0.11254287  0.46270799     0.13500
H859        H  0.58010190  0.17900741  0.51983333     0.10000
H860        H  0.57308578  0.21309712  0.47061466     0.11100
H861        H  0.67225518  0.26569032  0.50115533     0.16900
C862        C  0.39180478  0.04765768  0.60803589    -0.01300
C863        C  0.37965426  0.01968615  0.59906177     0.07300
C864        C  0.35160802  0.99741335  0.60482262    -0.07300
C865        C  0.33582990  0.00254845  0.61949820     0.04700
C866        C  0.34831462  0.03040241  0.62882120    -0.14500
C867        C  0.37618498  0.05274480  0.62277172    -0.07800
C868        C  0.39624726  0.01332106  0.58390746     0.05700
C869        C  0.42273811  0.01458122  0.58930228    -0.08900
C870        C  0.44009221  0.01062788  0.57529297     0.00700
C871        C  0.43083871  0.00498711  0.55542833     0.00500
C872        C  0.40374094  0.00256614  0.55018230    -0.12500
C873        C  0.38656858  0.00692454  0.56419651     0.01000
C874        C  0.46699737  0.01187701  0.58178412     0.40300
C875        C  0.35987339  0.00619609  0.55784184     0.36900
C876        C  0.42007095  0.07165413  0.60210374     0.36700
C877        C  0.30659344  0.97919052  0.62426987     0.37400
N878        N  0.48851978  0.01281502  0.58698859    -0.43400
N879        N  0.33851434  0.00572624  0.55278329    -0.43800
N880        N  0.28316397  0.96046131  0.62808904    -0.41200
N881        N  0.44270157  0.09088122  0.59730914    -0.42600
H882        H  0.38598305  0.07423824  0.62976726     0.13500
H883        H  0.34207636  0.97591864  0.59785851     0.10000
H884        H  0.43002862  0.01903039  0.60449303     0.11100
H885        H  0.39652399  0.99839922  0.53497361     0.16900
C886        C  0.41977186  0.00559371  0.41383897    -0.01300
C887        C  0.39129307  0.98112387  0.41267788     0.07300
C888        C  0.38013846  0.96128879  0.42841426    -0.07300
C889        C  0.39729015  0.96498742  0.44512550     0.04700
C890        C  0.42646999  0.98905012  0.44615219    -0.14500
C891        C  0.43705631  0.00941017  0.43047634    -0.07800
C892        C  0.37333489  0.97471998  0.39468982     0.05700
C893        C  0.37313498  0.95426388  0.38125332    -0.08900
C894        C  0.35548802  0.94652370  0.36441163     0.00700
C895        C  0.33767275  0.95930845  0.36097372     0.00500
C896        C  0.33838680  0.98029803  0.37418210    -0.12500
C897        C  0.35605048  0.98802607  0.39105191     0.01000
C898        C  0.35626217  0.92578056  0.35071332     0.40300
C899        C  0.35568283  0.00909217  0.40463482     0.36900
C900        C  0.43198176  0.02650735  0.39786883     0.36700
C901        C  0.38452327  0.94299356  0.46044167     0.37400
N902        N  0.35692679  0.90926218  0.33966143    -0.43400
N903        N  0.35540829  0.02595695  0.41555503    -0.43800
N904        N  0.37411941  0.92527892  0.47264801    -0.41200
N905        N  0.44176850  0.04325577  0.38506314    -0.42600
H906        H  0.45917485  0.02816074  0.43098488     0.13500
H907        H  0.35810012  0.94244120  0.42741204     0.10000
H908        H  0.38666767  0.94426190  0.38401418     0.11100
H909        H  0.32470344  0.99015015  0.37149552     0.16900
C910        C  0.40529114  0.83845008  0.51284281    -0.01300
C911        C  0.41729141  0.82371632  0.50217280     0.07300
C912        C  0.44396414  0.84028899  0.49217673    -0.07300
C913        C  0.45873630  0.87114309  0.49263858     0.04700
C914        C  0.44686325  0.88602076  0.50343807    -0.14500
C915        C  0.42003598  0.86932196  0.51335250    -0.07800
C916        C  0.40163234  0.79107273  0.50053129     0.05700
C917        C  0.37448227  0.77689961  0.49076701    -0.08900
C918        C  0.35850797  0.74615803  0.48922635     0.00700
C919        C  0.36969328  0.72888330  0.49765651     0.00500
C920        C  0.39741090  0.74323538  0.50686980    -0.12500
C921        C  0.41335453  0.77404627  0.50838459     0.01000
C922        C  0.33123488  0.73319238  0.47832278     0.40300
C923        C  0.44119042  0.78764766  0.51863876     0.36900
C924        C  0.37808345  0.82228824  0.52360790     0.36700
C925        C  0.48507357  0.88683369  0.48093579     0.37400
N926        N  0.30948147  0.72307764  0.46947411    -0.43400
N927        N  0.46350511  0.79856907  0.52685427    -0.43800
N928        N  0.50605772  0.89926172  0.47142679    -0.41200
N929        N  0.35626399  0.80924175  0.53220935    -0.42600
H930        H  0.41065466  0.88042007  0.52166481     0.13500
H931        H  0.45293557  0.82902586  0.48361445     0.10000
H932        H  0.36575669  0.78999938  0.48429089     0.11100
H933        H  0.40631060  0.73034120  0.51340896     0.16900
C934        C  0.15411159  0.78104459  0.33506801    -0.01300
C935        C  0.15868081  0.80891374  0.32940381     0.07300
C936        C  0.13469080  0.81208961  0.32361720    -0.07300
C937        C  0.10611747  0.78790186  0.32365356     0.04700
C938        C  0.10131555  0.75982233  0.32947705    -0.14500
C939        C  0.12563542  0.75677485  0.33496861    -0.07800
C940        C  0.18833306  0.83518893  0.32965062     0.05700
C941        C  0.20748787  0.83982621  0.31394280    -0.08900
C942        C  0.23534269  0.86502440  0.31330192     0.00700
C943        C  0.24426803  0.88602600  0.32860374     0.00500
C944        C  0.22530174  0.88086987  0.34458770    -0.12500
C945        C  0.19747015  0.85568587  0.34519946     0.01000
C946        C  0.25454270  0.86847509  0.29704593     0.40300
C947        C  0.17864223  0.85127049  0.36188761     0.36900
C948        C  0.17823300  0.77711263  0.34158327     0.36700
C949        C  0.08215288  0.79289671  0.31850271     0.37400
N950        N  0.26985333  0.87105392  0.28400364    -0.43400
N951        N  0.16358156  0.84770125  0.37528617    -0.43800
N952        N  0.06298468  0.79691653  0.31428137    -0.41200
N953        N  0.19760797  0.77408935  0.34688203    -0.42600
H954        H  0.12233458  0.73538833  0.33940814     0.13500
H955        H  0.13830674  0.83365751  0.31934244     0.10000
H956        H  0.20053919  0.82380755  0.30211666     0.11100
H957        H  0.23200841  0.89688865  0.35640035     0.16900
C958        C  0.90810188  0.82808983  0.16842368    -0.01300
C959        C  0.91732691  0.84079951  0.14966772     0.07300
C960        C  0.91063112  0.82256118  0.13315794    -0.07300
C961        C  0.89537608  0.79179146  0.13512746     0.04700
C962        C  0.88669050  0.77874716  0.15409968    -0.14500
C963        C  0.89304968  0.79741036  0.17052354    -0.07800
C964        C  0.93489016  0.87317004  0.14719206     0.05700
C965        C  0.96510306  0.88725417  0.15105197    -0.08900
C966        C  0.98235699  0.91801923  0.15034274     0.00700
C967        C  0.96919076  0.93543711  0.14567718     0.00500
C968        C  0.93887417  0.92085943  0.14121779    -0.12500
C969        C  0.92177482  0.89008805  0.14198476     0.01000
C970        C  0.01315069  0.93066247  0.15517844     0.40300
C971        C  0.89064652  0.87633612  0.13794820     0.36900
C972        C  0.91375929  0.84620273  0.18571691     0.36700
C973        C  0.88958604  0.77455157  0.11736959     0.37400
N974        N  0.03781044  0.94060948  0.15906362    -0.43400
N975        N  0.86568403  0.86527181  0.13474665    -0.43800
N976        N  0.88494870  0.76086455  0.10308089    -0.41200
N977        N  0.91823108  0.86078550  0.19953276    -0.42600
H978        H  0.88630461  0.78811008  0.18512257     0.13500
H979        H  0.91767432  0.83244435  0.11872169     0.10000
H980        H  0.97513129  0.87408217  0.15504892     0.11100
H981        H  0.92822743  0.93348653  0.13738087     0.16900
C982        C  0.93098030  0.62648843  0.04937421    -0.01300
C983        C  0.94594453  0.65099116  0.06192251     0.07300
C984        C  0.97518093  0.67215763  0.05776194    -0.07300
C985        C  0.98983076  0.66884673  0.04154899     0.04700
C986        C  0.97503307  0.64390523  0.02924629    -0.14500
C987        C  0.94555236  0.62316955  0.03323095    -0.07800
C988        C  0.93125857  0.65463514  0.07945500     0.05700
C989        C  0.92261474  0.63391258  0.09472995    -0.08900
C990        C  0.90639006  0.63499572  0.11077883     0.00700
C991        C  0.89858384  0.65738804  0.11171476     0.00500
C992        C  0.90834782  0.67872364  0.09662140    -0.12500
C993        C  0.92446737  0.67749167  0.08062087     0.01000
C994        C  0.89733798  0.61217934  0.12551826     0.40300
C995        C  0.93272518  0.69920105  0.06516762     0.36900
C996        C  0.90057337  0.60463042  0.05266097     0.36700
C997        C  0.02027206  0.69062137  0.03846620     0.37400
N998        N  0.89017146  0.59380479  0.13726079    -0.43400
N999        N  0.93935615  0.71658612  0.05277945    -0.43800
N1000       N  0.04466611  0.70830745  0.03621129    -0.41200
N1001       N  0.87621404  0.58711581  0.05530903    -0.42600
H1002       H  0.93388958  0.60409219  0.02370722     0.13500
H1003       H  0.98671781  0.69106073  0.06743699     0.10000
H1004       H  0.92803659  0.61638698  0.09384835     0.11100
H1005       H  0.90297107  0.69629072  0.09706847     0.16900
C1006       C  0.72840084  0.71635586  0.27443689    -0.01300
C1007       C  0.71791309  0.68926192  0.26451365     0.07300
C1008       C  0.69023078  0.66560014  0.26954905    -0.07300
C1009       C  0.67294834  0.66859367  0.28414183     0.04700
C1010       C  0.68360672  0.69559079  0.29435084    -0.14500
C1011       C  0.71141745  0.71921450  0.28926821    -0.07800
C1012       C  0.73563759  0.68516116  0.24899380     0.05700
C1013       C  0.76339551  0.68900777  0.25391077    -0.08900
C1014       C  0.78100459  0.68575724  0.23972774     0.00700
C1015       C  0.77072647  0.67820086  0.22015917     0.00500
C1016       C  0.74270130  0.67381819  0.21535482    -0.12500
C1017       C  0.72527648  0.67743066  0.22949901     0.01000
C1018       C  0.80899218  0.68923899  0.24587763     0.40300
C1019       C  0.69728075  0.67402892  0.22347873     0.36900
C1020       C  0.75613346  0.74180450  0.26924562     0.36700
C1021       C  0.64393606  0.64398828  0.28762525     0.37400
N1022       N  0.83139409  0.69198652  0.25082274    -0.43400
N1023       N  0.67485795  0.67131571  0.21863091    -0.43800
N1024       N  0.62070649  0.62405145  0.29017377    -0.41200
N1025       N  0.77832831  0.76217151  0.26501483    -0.42600
H1026       H  0.71996209  0.74009572  0.29692574     0.13500
H1027       H  0.68200866  0.64472502  0.26193092     0.10000
H1028       H  0.77126432  0.69445638  0.26893613     0.11100
H1029       H  0.73461017  0.66814659  0.20039046     0.16900
C1030       C  0.98398710  0.67275463  0.26904283    -0.01300
C1031       C  0.96349955  0.68297469  0.26899158     0.07300
C1032       C  0.96117449  0.69737406  0.28582345    -0.07300
C1033       C  0.97972840  0.70292643  0.30205653     0.04700
C1034       C  0.00082719  0.69365516  0.30174754    -0.14500
C1035       C  0.00252360  0.67830549  0.28533014    -0.07800
C1036       C  0.94502236  0.67996785  0.25142436     0.05700
C1037       C  0.92579402  0.65190264  0.24371726    -0.08900
C1038       C  0.90725164  0.64837169  0.22773981     0.00700
C1039       C  0.90714054  0.67326042  0.21950002     0.00500
C1040       C  0.92678731  0.70131907  0.22704433    -0.12500
C1041       C  0.94582169  0.70487019  0.24261254     0.01000
C1042       C  0.88795032  0.61885811  0.22065242     0.40300
C1043       C  0.96642580  0.73443827  0.24901066     0.36900
C1044       C  0.98714047  0.65741177  0.25237214     0.36700
C1045       C  0.97746998  0.71907756  0.31858294     0.37400
N1046       N  0.87263229  0.59518063  0.21495180    -0.43400
N1047       N  0.98296683  0.75811839  0.25413001    -0.43800
N1048       N  0.97573145  0.73209791  0.33180678    -0.41200
N1049       N  0.98958649  0.64490455  0.23909850    -0.42600
H1050       H  0.01874867  0.67112296  0.28511507     0.13500
H1051       H  0.94518767  0.70485479  0.28609944     0.10000
H1052       H  0.92491868  0.63264355  0.25040559     0.11100
H1053       H  0.92745254  0.72066755  0.22066456     0.16900
C1054       C  0.77006053  0.50431739  0.16905525    -0.01300
C1055       C  0.74226970  0.48994864  0.17828797     0.07300
C1056       C  0.73041883  0.50683917  0.18580684    -0.07300
C1057       C  0.74558670  0.53758485  0.18408464     0.04700
C1058       C  0.77358216  0.55209144  0.17490415    -0.14500
C1059       C  0.78547279  0.53505410  0.16757412    -0.07800
C1060       C  0.72559228  0.45739421  0.18058883     0.05700
C1061       C  0.73882582  0.44348217  0.19061241    -0.08900
C1062       C  0.72458335  0.41280055  0.19242938     0.00700
C1063       C  0.69603603  0.39534098  0.18445557     0.00500
C1064       C  0.68246431  0.40945600  0.17496082    -0.12500
C1065       C  0.69700445  0.44012570  0.17285134     0.01000
C1066       C  0.73983932  0.40015085  0.20277324     0.40300
C1067       C  0.68253286  0.45319524  0.16204759     0.36900
C1068       C  0.78291666  0.48797003  0.16052364     0.36700
C1069       C  0.73204267  0.55347718  0.19232176     0.37400
N1070       N  0.75224823  0.39013564  0.21097409    -0.43400
N1071       N  0.67088701  0.46362725  0.15340463    -0.43800
N1072       N  0.72108018  0.56612585  0.19888543    -0.41200
N1073       N  0.79319689  0.47482360  0.15373946    -0.42600
H1074       H  0.80671550  0.54572142  0.16030310     0.13500
H1075       H  0.70926074  0.49592096  0.19318645     0.10000
H1076       H  0.76056752  0.45672003  0.19692725     0.11100
H1077       H  0.66070395  0.39646930  0.16863686     0.16900
C1078       C  0.16478008  0.60653234  0.51367180    -0.01300
C1079       C  0.18032794  0.59276883  0.50660127     0.07300
C1080       C  0.16471908  0.56302700  0.50110157    -0.07300
C1081       C  0.13400400  0.54707820  0.50198454     0.04700
C1082       C  0.11817128  0.56107927  0.50841782    -0.14500
C1083       C  0.13401102  0.59077970  0.51432996    -0.07800
C1084       C  0.21288416  0.60860006  0.50507013     0.05700
C1085       C  0.22857693  0.59758541  0.51543726    -0.08900
C1086       C  0.25920188  0.61115375  0.51405397     0.00700
C1087       C  0.27478338  0.63676610  0.50237828     0.00500
C1088       C  0.25901688  0.64766142  0.49194227    -0.12500
C1089       C  0.22831449  0.63352192  0.49285377     0.01000
C1090       C  0.27396323  0.59854968  0.52503755     0.40300
C1091       C  0.21310189  0.64409417  0.48040138     0.36900
C1092       C  0.17989744  0.63656772  0.52071638     0.36700
C1093       C  0.11961288  0.51671330  0.49558525     0.37400
N1094       N  0.28571552  0.58828091  0.53374145    -0.43400
N1095       N  0.20092235  0.65253020  0.47037925    -0.43800
N1096       N  0.10816022  0.49237395  0.49049629    -0.41200
N1097       N  0.19203772  0.66066878  0.52629308    -0.42600
H1098       H  0.12236348  0.60176903  0.51959480     0.13500
H1099       H  0.17664185  0.55232316  0.49581371     0.10000
H1100       H  0.21673394  0.57813527  0.52466301     0.11100
H1101       H  0.27071519  0.66684481  0.48246322     0.16900
C1102       C  0.99032222  0.59344764  0.42307815    -0.01300
C1103       C  0.01639109  0.62045483  0.42004607     0.07300
C1104       C  0.03948854  0.62950204  0.43364633    -0.07300
C1105       C  0.03768002  0.61143018  0.44945778     0.04700
C1106       C  0.01196153  0.58371436  0.45210744    -0.14500
C1107       C  0.98831161  0.57543416  0.43897537    -0.07800
C1108       C  0.02092971  0.63849804  0.40204804     0.05700
C1109       C  0.00231972  0.65017639  0.39815943    -0.08900
C1110       C  0.00615496  0.66713005  0.38121842     0.00700
C1111       C  0.02915138  0.67283274  0.36798243     0.00500
C1112       C  0.04765407  0.66111274  0.37188089    -0.12500
C1113       C  0.04367668  0.64397798  0.38862087     0.01000
C1114       C  0.98694430  0.67923487  0.37806462     0.40300
C1115       C  0.06285356  0.63172926  0.39144963     0.36900
C1116       C  0.96586836  0.58305519  0.40955881     0.36700
C1117       C  0.06333173  0.62125875  0.46183427     0.37400
N1118       N  0.97154003  0.68892845  0.37549666    -0.43400
N1119       N  0.07824283  0.62195213  0.39373450    -0.43800
N1120       N  0.08399540  0.62918021  0.47164655    -0.41200
N1121       N  0.94625349  0.57478418  0.39874124    -0.42600
H1122       H  0.96832170  0.55444158  0.44084607     0.13500
H1123       H  0.05951326  0.65038193  0.43144887     0.10000
H1124       H  0.98490072  0.64621662  0.40848513     0.11100
H1125       H  0.06529079  0.66529166  0.36167450     0.16900
C1126       C  0.98515821  0.37908177  0.62643373    -0.01300
C1127       C  0.98297258  0.37185710  0.60626737     0.07300
C1128       C  0.97674918  0.34349767  0.60075334    -0.07300
C1129       C  0.97171774  0.32206446  0.61497155     0.04700
C1130       C  0.97240486  0.32874305  0.63520913    -0.14500
C1131       C  0.97965369  0.35752728  0.64069046    -0.07800
C1132       C  0.98718041  0.39348446  0.59061702     0.05700
C1133       C  0.01141040  0.40341821  0.57796676    -0.08900
C1134       C  0.01595195  0.42342084  0.56275256     0.00700
C1135       C  0.99562568  0.43359722  0.55979432     0.00500
C1136       C  0.97131042  0.42341167  0.57260007    -0.12500
C1137       C  0.96696790  0.40358494  0.58782951     0.01000
C1138       C  0.04200154  0.43339595  0.55081753     0.40300
C1139       C  0.94120626  0.39337973  0.60011793     0.36900
C1140       C  0.99354064  0.40858934  0.63278900     0.36700
C1141       C  0.96731489  0.29396552  0.60829034     0.37400
N1142       N  0.06296197  0.44139883  0.54132998    -0.43400
N1143       N  0.92061220  0.38528276  0.60999391    -0.43800
N1144       N  0.96426559  0.27180664  0.60248718    -0.41200
N1145       N  0.00037856  0.43229808  0.63782012    -0.42600
H1146       H  0.98062461  0.36308481  0.65615710     0.13500
H1147       H  0.97577695  0.33809639  0.58524999     0.10000
H1148       H  0.02697281  0.39565389  0.58011181     0.11100
H1149       H  0.95532591  0.43066756  0.57065188     0.16900
C1150       C  0.00366415  0.65137898  0.60897205    -0.01300
C1151       C  0.98377297  0.62149855  0.60482574     0.07300
C1152       C  0.95808065  0.60629992  0.61611312    -0.07300
C1153       C  0.95151762  0.62072599  0.63092908     0.04700
C1154       C  0.97065212  0.65102180  0.63436172    -0.14500
C1155       C  0.99683738  0.66595243  0.62352283    -0.07800
C1156       C  0.98937308  0.60546288  0.58895809     0.05700
C1157       C  0.99217033  0.58090059  0.59395136    -0.08900
C1158       C  0.99618736  0.56434661  0.57937104     0.00700
C1159       C  0.99775763  0.57256867  0.55941628     0.00500
C1160       C  0.99551941  0.59743629  0.55442116    -0.12500
C1161       C  0.99084357  0.61361931  0.56897894     0.01000
C1162       C  0.99922137  0.53937604  0.58524562     0.40300
C1163       C  0.98613129  0.63752171  0.56300977     0.36900
C1164       C  0.03149719  0.66727902  0.59886190     0.36700
C1165       C  0.92576730  0.60373683  0.64295222     0.37400
N1166       N  0.00169874  0.51938179  0.58989806    -0.43400
N1167       N  0.98229188  0.65665316  0.55827542    -0.43800
N1168       N  0.90527150  0.59011192  0.65269919    -0.41200
N1169       N  0.05381340  0.67997846  0.59076798    -0.42600
H1170       H  0.01192462  0.68906393  0.62641266     0.13500
H1171       H  0.94314074  0.58313001  0.61331313     0.10000
H1172       H  0.99104954  0.57458257  0.60929551     0.11100
H1173       H  0.99626164  0.60351322  0.53905558     0.16900
C1174       C  0.84860431  0.42425781  0.47572664    -0.01300
C1175       C  0.83043122  0.40946981  0.49187646     0.07300
C1176       C  0.84293410  0.41184698  0.51047028    -0.07300
C1177       C  0.87324569  0.42929982  0.51335283     0.04700
C1178       C  0.89171774  0.44508422  0.49728546    -0.14500
C1179       C  0.87895095  0.44189127  0.47851544    -0.07800
C1180       C  0.79806546  0.39340121  0.49014522     0.05700
C1181       C  0.78367475  0.36512088  0.48188939    -0.08900
C1182       C  0.75289717  0.34921355  0.48057677     0.00700
C1183       C  0.73611858  0.36193087  0.48751276     0.00500
C1184       C  0.75092878  0.39041799  0.49569240    -0.12500
C1185       C  0.78153109  0.40605002  0.49711510     0.01000
C1186       C  0.73944573  0.32032763  0.47167740     0.40300
C1187       C  0.79561396  0.43517471  0.50571364     0.36900
C1188       C  0.83647222  0.42231066  0.45631316     0.36700
C1189       C  0.88441325  0.43013229  0.53295057     0.37400
N1190       N  0.72874314  0.29714606  0.46458741    -0.43400
N1191       N  0.80703154  0.45848881  0.51262116    -0.43800
N1192       N  0.89323448  0.43068727  0.54867762    -0.41200
N1193       N  0.82675937  0.42072394  0.44074815    -0.42600
H1194       H  0.89259232  0.45352390  0.46596191     0.13500
H1195       H  0.82878498  0.40030083  0.52286473     0.10000
H1196       H  0.79654328  0.35545878  0.47655108     0.11100
H1197       H  0.73859560  0.40054764  0.50121711     0.16900
C1198       C  0.52394244  0.52014310  0.98406266    -0.01300
C1199       C  0.50593001  0.50942422  0.00092607     0.07300
C1200       C  0.51399526  0.52666031  0.01806693    -0.07300
C1201       C  0.53971957  0.55409723  0.01868178     0.04700
C1202       C  0.55831482  0.56440316  0.00203216    -0.14500
C1203       C  0.54994334  0.54734747  0.98477122    -0.07800
C1204       C  0.47885537  0.48011555  0.00108893     0.05700
C1205       C  0.48123996  0.45484468  0.99775123    -0.08900
C1206       C  0.45625189  0.42680504  0.99769479     0.00700
C1207       C  0.42833855  0.42380209  0.00112752     0.00500
C1208       C  0.42591164  0.44897972  0.00457701    -0.12500
C1209       C  0.45089020  0.47702240  0.00467259     0.01000
C1210       C  0.45971284  0.40163573  0.99337475     0.40300
C1211       C  0.44719708  0.50228956  0.00808669     0.36900
C1212       C  0.51594810  0.50388570  0.96577876     0.36700
C1213       C  0.54599380  0.57161246  0.03633932     0.37400
N1214       N  0.46274594  0.38166007  0.98973224    -0.43400
N1215       N  0.44427038  0.52254145  0.01091577    -0.43800
N1216       N  0.55098561  0.58568236  0.05046997    -0.41200
N1217       N  0.50951911  0.49088700  0.95111700    -0.42600
H1218       H  0.56396362  0.55513060  0.97186866     0.13500
H1219       H  0.50012258  0.51860606  0.03102556     0.10000
H1220       H  0.50268198  0.45708258  0.99511072     0.11100
H1221       H  0.40442704  0.44667450  0.00715892     0.16900
C1222       C  0.74775423  0.65933155  0.07686072    -0.01300
C1223       C  0.71710393  0.64357818  0.07995591     0.07300
C1224       C  0.70629037  0.63176687  0.09863950    -0.07300
C1225       C  0.72537284  0.63570595  0.11426690     0.04700
C1226       C  0.75626807  0.65144244  0.11124293    -0.14500
C1227       C  0.76692335  0.66304515  0.09236927    -0.07800
C1228       C  0.69592431  0.63899207  0.06390066     0.05700
C1229       C  0.69621747  0.62413844  0.04672879    -0.08900
C1230       C  0.67648174  0.61923279  0.03135690     0.00700
C1231       C  0.65592405  0.62904638  0.03314477     0.00500
C1232       C  0.65541257  0.64373786  0.05025106    -0.12500
C1233       C  0.67521614  0.64879110  0.06561421     0.01000
C1234       C  0.67754045  0.60400245  0.01390479     0.40300
C1235       C  0.67413227  0.66444360  0.08282992     0.36900
C1236       C  0.76012512  0.67246903  0.05801795     0.36700
C1237       C  0.71228661  0.62359497  0.13315932     0.37400
N1238       N  0.67827578  0.59181660  0.99987595    -0.43400
N1239       N  0.67318375  0.67686010  0.09667224    -0.43800
N1240       N  0.70164646  0.61390976  0.14826884    -0.41200
N1241       N  0.77003073  0.68293477  0.04290903    -0.42600
H1242       H  0.79041611  0.67519072  0.08961277     0.13500
H1243       H  0.68270012  0.61939286  0.10103137     0.10000
H1244       H  0.71176463  0.61623107  0.04540193     0.11100
H1245       H  0.63953548  0.65123380  0.05157108     0.16900
C1246       C  0.85352700  0.19985548  0.68162856    -0.01300
C1247       C  0.84552798  0.17928279  0.66617391     0.07300
C1248       C  0.86502219  0.18513327  0.65047451    -0.07300
C1249       C  0.89241952  0.21091065  0.65010996     0.04700
C1250       C  0.90032334  0.23183262  0.66539481    -0.14500
C1251       C  0.88065778  0.22597975  0.68106358    -0.07800
C1252       C  0.81745520  0.15094761  0.66653158     0.05700
C1253       C  0.79081544  0.15116273  0.66510359    -0.08900
C1254       C  0.76389298  0.12480936  0.66561018     0.00700
C1255       C  0.76346502  0.09766561  0.66764694     0.00500
C1256       C  0.79015265  0.09752852  0.66909641    -0.12500
C1257       C  0.81703400  0.12384578  0.66845346     0.01000
C1258       C  0.73706065  0.12625195  0.66455046     0.40300
C1259       C  0.84390426  0.12257339  0.67009911     0.36900
C1260       C  0.83480481  0.19397653  0.69859314     0.36700
C1261       C  0.91272527  0.21407348  0.63470630     0.37400
N1262       N  0.71553247  0.12735221  0.66365319    -0.43400
N1263       N  0.86549255  0.12164526  0.67135023    -0.43800
N1264       N  0.92876993  0.21575144  0.62241557    -0.41200
N1265       N  0.81979001  0.18906275  0.71220781    -0.42600
H1266       H  0.88667820  0.24171620  0.69299300     0.13500
H1267       H  0.85909348  0.16909213  0.63874478     0.10000
H1268       H  0.79111015  0.17199644  0.66362637     0.11100
H1269       H  0.78996743  0.07674216  0.67054641     0.16900
C1270       C  0.60011054  0.99164877  0.57403942    -0.01300
C1271       C  0.60933786  0.01402744  0.58831983     0.07300
C1272       C  0.60005085  0.03491887  0.58689142    -0.07300
C1273       C  0.58134785  0.03360227  0.57172042     0.04700
C1274       C  0.57148761  0.01078755  0.55742635    -0.14500
C1275       C  0.58135766  0.99016189  0.55882094    -0.07800
C1276       C  0.62898570  0.01644591  0.60480941     0.05700
C1277       C  0.65773226  0.02263178  0.60064779    -0.08900
C1278       C  0.67758647  0.02723918  0.61587374     0.00700
C1279       C  0.66878901  0.02603939  0.63567663     0.00500
C1280       C  0.63970277  0.01879620  0.63981842    -0.12500
C1281       C  0.61981099  0.01400459  0.62458519     0.01000
C1282       C  0.70669118  0.03275443  0.61082071     0.40300
C1283       C  0.59010265  0.00660095  0.62956313     0.36900
C1284       C  0.60904044  0.96956595  0.57497454     0.36700
C1285       C  0.57306281  0.05621250  0.57138398     0.37400
N1286       N  0.73001526  0.03715198  0.60680500    -0.43400
N1287       N  0.56627802  0.00065735  0.63350531    -0.43800
N1288       N  0.56653355  0.07440311  0.57122157    -0.41200
N1289       N  0.61626856  0.95192099  0.57572900    -0.42600
H1290       H  0.57423201  0.97254911  0.54810871     0.13500
H1291       H  0.60755343  0.05243112  0.59773184     0.10000
H1292       H  0.66479093  0.02433018  0.58545476     0.11100
H1293       H  0.63274406  0.01766089  0.65499070     0.16900
C1294       C  0.79285343  0.65061506  0.66162140    -0.01300
C1295       C  0.81871947  0.67830963  0.66254644     0.07300
C1296       C  0.81661125  0.70405578  0.66298868    -0.07300
C1297       C  0.78909895  0.70247169  0.66314361     0.04700
C1298       C  0.76320930  0.67471969  0.66289372    -0.14500
C1299       C  0.76538902  0.64902743  0.66185890    -0.07800
C1300       C  0.84814541  0.68078180  0.66308415     0.05700
C1301       C  0.86697900  0.69301220  0.64688267    -0.08900
C1302       C  0.89450795  0.69464364  0.64658102     0.00700
C1303       C  0.90340843  0.68384767  0.66271143     0.00500
C1304       C  0.88489841  0.67243482  0.67914398    -0.12500
C1305       C  0.85747182  0.67091229  0.67947643     0.01000
C1306       C  0.91358333  0.70824829  0.62988573     0.40300
C1307       C  0.83942025  0.65949791  0.69686788     0.36900
C1308       C  0.79402285  0.62361909  0.66014661     0.36700
C1309       C  0.78793226  0.72952463  0.66292475     0.37400
N1310       N  0.92896232  0.71925881  0.61655989    -0.43400
N1311       N  0.82494309  0.65035592  0.71079940    -0.43800
N1312       N  0.78692124  0.75116792  0.66265347    -0.41200
N1313       N  0.79503982  0.60203132  0.65896274    -0.42600
H1314       H  0.74553553  0.62764896  0.66142455     0.13500
H1315       H  0.83651050  0.72539253  0.66334357     0.10000
H1316       H  0.86002672  0.70106547  0.63440462     0.11100
H1317       H  0.89180503  0.66441955  0.69167063     0.16900
C1318       C  0.82511646  0.90325417  0.86868132    -0.01300
C1319       C  0.84530880  0.91941590  0.85372405     0.07300
C1320       C  0.83486648  0.92018798  0.83484386    -0.07300
C1321       C  0.80464030  0.90520089  0.83066677     0.04700
C1322       C  0.78409412  0.88902402  0.84569966    -0.14500
C1323       C  0.79489846  0.88835438  0.86462625    -0.07800
C1324       C  0.87748459  0.93580371  0.85741605     0.05700
C1325       C  0.89305988  0.92042405  0.85768851    -0.08900
C1326       C  0.92375598  0.93529376  0.85983115     0.00700
C1327       C  0.93962788  0.96655424  0.86173597     0.00500
C1328       C  0.92344686  0.98158926  0.86215177    -0.12500
C1329       C  0.89279353  0.96655445  0.85999274     0.01000
C1330       C  0.93788868  0.91753154  0.85966139     0.40300
C1331       C  0.87741432  0.98311529  0.86042170     0.36900
C1332       C  0.83491534  0.90205381  0.88837390     0.36700
C1333       C  0.79562088  0.90755947  0.81095523     0.37400
N1334       N  0.94896667  0.90306441  0.85948446    -0.43400
N1335       N  0.86502070  0.99632072  0.86080153    -0.43800
N1336       N  0.78851121  0.90951597  0.79513113    -0.41200
N1337       N  0.84275164  0.90110224  0.90416510    -0.42600
H1338       H  0.77971616  0.87610666  0.87639725     0.13500
H1339       H  0.85047773  0.93268925  0.82332469     0.10000
H1340       H  0.88115739  0.89666390  0.85585563     0.11100
H1341       H  0.93470252  0.00533915  0.86385158     0.16900
C1342       C  0.68958765  0.69619123  0.73431856    -0.01300
C1343       C  0.67912940  0.71623911  0.73226216     0.07300
C1344       C  0.67259199  0.72251034  0.71344545    -0.07300
C1345       C  0.67722819  0.70976419  0.69663845     0.04700
C1346       C  0.68858008  0.69030571  0.69860441    -0.14500
C1347       C  0.69415914  0.68336401  0.71756919    -0.07800
C1348       C  0.67781508  0.73318245  0.74933285     0.05700
C1349       C  0.70278704  0.76012309  0.75378089    -0.08900
C1350       C  0.70285043  0.77730199  0.76960478     0.00700
C1351       C  0.67725754  0.76762866  0.78131160     0.00500
C1352       C  0.65240889  0.74014781  0.77698914    -0.12500
C1353       C  0.65254134  0.72297066  0.76114654     0.01000
C1354       C  0.72982070  0.80433400  0.77364333     0.40300
C1355       C  0.62653722  0.69506784  0.75716996     0.36900
C1356       C  0.69669309  0.68928507  0.75343747     0.36700
C1357       C  0.67195044  0.71848585  0.67755427     0.37400
N1358       N  0.75148131  0.82595418  0.77686048    -0.43400
N1359       N  0.60572815  0.67267193  0.75397152    -0.43800
N1360       N  0.66771504  0.72543840  0.66224754    -0.41200
N1361       N  0.70240056  0.68381989  0.76878154    -0.42600
H1362       H  0.70271358  0.66835166  0.71925986     0.13500
H1363       H  0.66484874  0.73820022  0.71186547     0.10000
H1364       H  0.72238962  0.76771520  0.74482736     0.11100
H1365       H  0.63261159  0.73225604  0.78575347     0.16900
C1366       C  0.70808894  0.93818547  0.75415595    -0.01300
C1367       C  0.68587875  0.94511041  0.74982981     0.07300
C1368       C  0.66041689  0.93308147  0.76143327    -0.07300
C1369       C  0.65664181  0.91405537  0.77712355     0.04700
C1370       C  0.67883543  0.90677260  0.78144996    -0.14500
C1371       C  0.70444746  0.91924390  0.76978930    -0.07800
C1372       C  0.68876219  0.96451040  0.73302099     0.05700
C1373       C  0.68939300  0.95490308  0.71383025    -0.08900
C1374       C  0.69366291  0.97312933  0.69760230     0.00700
C1375       C  0.69735385  0.00153744  0.70049591     0.00500
C1376       C  0.69628365  0.01096473  0.71968698    -0.12500
C1377       C  0.69186744  0.99265116  0.73590671     0.01000
C1378       C  0.69547767  0.96269435  0.67824967     0.40300
C1379       C  0.69146567  0.00349451  0.75539122     0.36900
C1380       C  0.73504838  0.95065100  0.74292774     0.36700
C1381       C  0.62942810  0.90191714  0.78803046     0.37400
N1382       N  0.69693312  0.95436166  0.66273095    -0.43400
N1383       N  0.69107218  0.01212335  0.77101688    -0.43800
N1384       N  0.60757135  0.89224504  0.79671723    -0.41200
N1385       N  0.75662589  0.96065315  0.73391087    -0.42600
H1386       H  0.72189267  0.91428066  0.77286869     0.13500
H1387       H  0.64323757  0.93831491  0.75802600     0.10000
H1388       H  0.68700231  0.93326989  0.71158543     0.11100
H1389       H  0.69907815  0.03274687  0.72198602     0.16900
C1390       C  0.63073415  0.71144610  0.90557414    -0.01300
C1391       C  0.64767863  0.72084106  0.92289635     0.07300
C1392       C  0.67083690  0.74985613  0.92435140    -0.07300
C1393       C  0.67683404  0.76994596  0.90899471     0.04700
C1394       C  0.65936950  0.76083779  0.89162311    -0.14500
C1395       C  0.63667603  0.73133474  0.89014689    -0.07800
C1396       C  0.64129464  0.70071909  0.93977649     0.05700
C1397       C  0.66003013  0.68927873  0.94354043    -0.08900
C1398       C  0.65404278  0.66926394  0.95893412     0.00700
C1399       C  0.62900451  0.66066328  0.97089516     0.00500
C1400       C  0.61047648  0.67243963  0.96720525    -0.12500
C1401       C  0.61650773  0.69245310  0.95182639     0.01000
C1402       C  0.67318230  0.65695126  0.96161516     0.40300
C1403       C  0.59719539  0.70447661  0.94875838     0.36900
C1404       C  0.60709763  0.68147294  0.90334533     0.36700
C1405       C  0.70098488  0.79957292  0.91171612     0.37400
N1406       N  0.68850940  0.64706999  0.96374905    -0.43400
N1407       N  0.58178209  0.71417714  0.94626848    -0.43800
N1408       N  0.72031314  0.82328668  0.91400234    -0.41200
N1409       N  0.58814159  0.65745468  0.90159693    -0.42600
H1410       H  0.62306872  0.72376316  0.87704390     0.13500
H1411       H  0.68398097  0.75691661  0.93768680     0.10000
H1412       H  0.67901930  0.69558663  0.93419182     0.11100
H1413       H  0.59135684  0.66607815  0.97643230     0.16900
C1414       C  0.44325419  0.70593752  0.83548872    -0.01300
C1415       C  0.46090131  0.72980851  0.82296617     0.07300
C1416       C  0.44740441  0.73788882  0.80823072    -0.07300
C1417       C  0.41673895  0.72272810  0.80596414     0.04700
C1418       C  0.39904879  0.69880953  0.81852048    -0.14500
C1419       C  0.41265894  0.69053827  0.83307745    -0.07800
C1420       C  0.49349762  0.74618613  0.82479997     0.05700
C1421       C  0.50914658  0.73136341  0.82104473    -0.08900
C1422       C  0.53984726  0.74574505  0.82275689     0.00700
C1423       C  0.55569378  0.77592913  0.82826676     0.00500
C1424       C  0.53976762  0.79069003  0.83189526    -0.12500
C1425       C  0.50903416  0.77612035  0.83028796     0.01000
C1426       C  0.55418551  0.72881938  0.81845021     0.40300
C1427       C  0.49380832  0.79205452  0.83496987     0.36900
C1428       C  0.45598940  0.69758191  0.85138824     0.36700
C1429       C  0.40410703  0.73150702  0.79023028     0.37400
N1430       N  0.56551520  0.71509900  0.81501735    -0.43400
N1431       N  0.48156630  0.80476864  0.83877560    -0.43800
N1432       N  0.39398147  0.73849425  0.77759438    -0.41200
N1433       N  0.46624012  0.69101667  0.86417423    -0.42600
H1434       H  0.39928793  0.67249710  0.84297521     0.13500
H1435       H  0.46091345  0.75599091  0.79841202     0.10000
H1436       H  0.49721820  0.70833243  0.81670443     0.11100
H1437       H  0.55128315  0.81367962  0.83630966     0.16900
C1438       C  0.38553875  0.37255090  0.61886108    -0.01300
C1439       C  0.37766449  0.36796569  0.59877680     0.07300
C1440       C  0.35078927  0.34350934  0.59324001    -0.07300
C1441       C  0.33216920  0.32330081  0.60735257     0.04700
C1442       C  0.34031025  0.32762002  0.62740180    -0.14500
C1443       C  0.36678900  0.35251368  0.63298884    -0.07800
C1444       C  0.39739103  0.38797160  0.58322390     0.05700
C1445       C  0.42369620  0.38811927  0.57902452    -0.08900
C1446       C  0.44235479  0.40579575  0.56390384     0.00700
C1447       C  0.43455439  0.42363121  0.55246757     0.00500
C1448       C  0.40821157  0.42351255  0.55691552    -0.12500
C1449       C  0.38984639  0.40611439  0.57220054     0.01000
C1450       C  0.46884629  0.40444689  0.56022491     0.40300
C1451       C  0.36380020  0.40786691  0.57674618     0.36900
C1452       C  0.41271429  0.39762511  0.62529722     0.36700
C1453       C  0.30477897  0.29843257  0.60097247     0.37400
N1454       N  0.49007707  0.40332089  0.55737626    -0.43400
N1455       N  0.34301315  0.40935735  0.58052873    -0.43800
N1456       N  0.28280706  0.27851629  0.59586582    -0.41200
N1457       N  0.43449722  0.41770051  0.63049363    -0.42600
H1458       H  0.37319515  0.35583927  0.64837349     0.13500
H1459       H  0.34460753  0.33998697  0.57781943     0.10000
H1460       H  0.42949441  0.37409146  0.58748649     0.11100
H1461       H  0.40212185  0.43747142  0.54864454     0.16900
C1462       C  0.35940530  0.39855666  0.38451694    -0.01300
C1463       C  0.37155960  0.38351011  0.39460534     0.07300
C1464       C  0.36329400  0.35451402  0.38928659    -0.07300
C1465       C  0.34314174  0.34036842  0.37399770     0.04700
C1466       C  0.33107392  0.35549464  0.36371442    -0.14500
C1467       C  0.33943245  0.38455769  0.36917203    -0.07800
C1468       C  0.39248202  0.39759931  0.41104071     0.05700
C1469       C  0.38198825  0.39135898  0.43040333    -0.08900
C1470       C  0.40059896  0.40586710  0.44634205     0.00700
C1471       C  0.43048203  0.42703688  0.44293440     0.00500
C1472       C  0.44106779  0.43226525  0.42346041    -0.12500
C1473       C  0.42233269  0.41791021  0.40758155     0.01000
C1474       C  0.38837221  0.39834412  0.46593560     0.40300
C1475       C  0.43402282  0.42475255  0.38783003     0.36900
C1476       C  0.36669096  0.42814242  0.38995151     0.36700
C1477       C  0.33431653  0.31000750  0.36975401     0.37400
N1478       N  0.37845430  0.39223243  0.48160432    -0.43400
N1479       N  0.44337594  0.43026675  0.37199733    -0.43800
N1480       N  0.32725594  0.28567979  0.36634079    -0.41200
N1481       N  0.37245718  0.45181010  0.39436376    -0.42600
H1482       H  0.33028034  0.39636416  0.36141509     0.13500
H1483       H  0.37242865  0.34285197  0.39723732     0.10000
H1484       H  0.35899085  0.37549132  0.43302583     0.11100
H1485       H  0.46386016  0.44843110  0.42051550     0.16900
C1486       C  0.57962676  0.56349498  0.58814882    -0.01300
C1487       C  0.60380096  0.59212328  0.58569415     0.07300
C1488       C  0.60955217  0.60527523  0.56697086    -0.07300
C1489       C  0.59187389  0.59022288  0.55074863     0.04700
C1490       C  0.56804601  0.56130092  0.55314594    -0.14500
C1491       C  0.56215916  0.54838624  0.57195884    -0.07800
C1492       C  0.62417216  0.60789947  0.60225654     0.05700
C1493       C  0.63881070  0.59472641  0.61145042    -0.08900
C1494       C  0.65797897  0.60846951  0.62721663     0.00700
C1495       C  0.66326770  0.63632757  0.63385851     0.00500
C1496       C  0.64857439  0.64950540  0.62468995    -0.12500
C1497       C  0.62917857  0.63557660  0.60898688     0.01000
C1498       C  0.67123479  0.59307370  0.63665245     0.40300
C1499       C  0.61436268  0.64988398  0.60022549     0.36900
C1500       C  0.57216603  0.54919775  0.60716478     0.36700
C1501       C  0.59966023  0.60435085  0.53170224     0.37400
N1502       N  0.68187931  0.58074765  0.64418592    -0.43400
N1503       N  0.60253808  0.66137459  0.59315606    -0.43800
N1504       N  0.60592740  0.61563912  0.51642287    -0.41200
N1505       N  0.56626016  0.53771765  0.62238822    -0.42600
H1506       H  0.54373293  0.52630563  0.57405775     0.13500
H1507       H  0.62838170  0.62711603  0.56493490     0.10000
H1508       H  0.63513779  0.57350597  0.60630426     0.11100
H1509       H  0.65255593  0.67090886  0.62965455     0.16900
C1510       C  0.62697072  0.65698151  0.39358100    -0.01300
C1511       C  0.60299735  0.62816419  0.39125800     0.07300
C1512       C  0.59129937  0.61846943  0.37234529    -0.07300
C1513       C  0.60302340  0.63699961  0.35591675     0.04700
C1514       C  0.62708868  0.66574423  0.35822515    -0.14500
C1515       C  0.63877992  0.67547158  0.37713696    -0.07800
C1516       C  0.58908286  0.60819891  0.40842920     0.05700
C1517       C  0.57462837  0.61581436  0.42268394    -0.08900
C1518       C  0.56045964  0.59728566  0.43877479     0.00700
C1519       C  0.56068025  0.57035701  0.44092606     0.00500
C1520       C  0.57520446  0.56284252  0.42654910    -0.12500
C1521       C  0.58932182  0.58143607  0.41047076     0.01000
C1522       C  0.54477791  0.60599835  0.45222928     0.40300
C1523       C  0.60439809  0.57286588  0.39642589     0.36900
C1524       C  0.64004227  0.66788004  0.41265998     0.36700
C1525       C  0.58889865  0.62664147  0.33705753     0.37400
N1526       N  0.53218882  0.61307906  0.46291653    -0.43400
N1527       N  0.61652183  0.56603859  0.38516843    -0.43800
N1528       N  0.57724780  0.61834874  0.32202814    -0.41200
N1529       N  0.65047623  0.67656816  0.42797225    -0.42600
H1530       H  0.65718746  0.69755921  0.37903452     0.13500
H1531       H  0.57254297  0.59658320  0.37049899     0.10000
H1532       H  0.57398441  0.63616533  0.42102098     0.11100
H1533       H  0.57568786  0.54237856  0.42789719     0.16900
C1534       C  0.60369788  0.37310353  0.49740319    -0.01300
C1535       C  0.61618608  0.40132522  0.48875891     0.07300
C1536       C  0.64329445  0.41280270  0.47905166    -0.07300
C1537       C  0.65800749  0.39657496  0.47781858     0.04700
C1538       C  0.64543061  0.36816066  0.48642370    -0.14500
C1539       C  0.61822254  0.35676885  0.49607240    -0.07800
C1540       C  0.60092379  0.41885851  0.48959869     0.05700
C1541       C  0.59646861  0.42821093  0.50794879    -0.08900
C1542       C  0.57983061  0.44239080  0.50970483     0.00700
C1543       C  0.56712475  0.44749926  0.49269560     0.00500
C1544       C  0.57282745  0.43915372  0.47420769    -0.12500
C1545       C  0.58951704  0.42498439  0.47255818     0.01000
C1546       C  0.57634034  0.45120943  0.52922597     0.40300
C1547       C  0.59367711  0.41589063  0.45330886     0.36900
C1548       C  0.57575374  0.36028243  0.50747552     0.36700
C1549       C  0.68538563  0.40926364  0.46705453     0.37400
N1550       N  0.57361867  0.45818809  0.54491190    -0.43400
N1551       N  0.59710121  0.40862365  0.43789972    -0.43800
N1552       N  0.70732445  0.41942256  0.45843134    -0.41200
N1553       N  0.55341127  0.35015092  0.51559868    -0.42600
H1554       H  0.60836319  0.33510172  0.50283971     0.13500
H1555       H  0.65292528  0.43451115  0.47236193     0.10000
H1556       H  0.60566299  0.42390178  0.52104438     0.11100
H1557       H  0.56365431  0.44303197  0.46095199     0.16900
C1558       C  0.43647287  0.59042353  0.48499015    -0.01300
C1559       C  0.41141331  0.58234951  0.49673038     0.07300
C1560       C  0.40057372  0.55714352  0.50866645    -0.07300
C1561       C  0.41492436  0.54053920  0.50951923     0.04700
C1562       C  0.44078842  0.54944385  0.49841385    -0.14500
C1563       C  0.45114973  0.57425944  0.48615299    -0.07800
C1564       C  0.39631474  0.60000953  0.49686237     0.05700
C1565       C  0.36730289  0.58711817  0.49004591    -0.08900
C1566       C  0.35219448  0.60297225  0.48990623     0.00700
C1567       C  0.36626981  0.63250654  0.49679185     0.00500
C1568       C  0.39543112  0.64530369  0.50358144    -0.12500
C1569       C  0.41036445  0.62928059  0.50382874     0.01000
C1570       C  0.32260130  0.58839452  0.48212919     0.40300
C1571       C  0.43977424  0.64300625  0.51186687     0.36900
C1572       C  0.44708137  0.61472835  0.47128784     0.36700
C1573       C  0.40337937  0.51528818  0.52246506     0.37400
N1574       N  0.29887236  0.57659724  0.47593300    -0.43400
N1575       N  0.46335592  0.65392418  0.51827232    -0.43800
N1576       N  0.39410751  0.49505687  0.53284374    -0.41200
N1577       N  0.45555519  0.63415383  0.46026889    -0.42600
H1578       H  0.47056517  0.58076869  0.47717214     0.13500
H1579       H  0.38111527  0.55073387  0.51757927     0.10000
H1580       H  0.35652032  0.56462173  0.48465941     0.11100
H1581       H  0.40643432  0.66768829  0.50915848     0.16900
C1582       C  0.53628822  0.00693512  0.98618781    -0.01300
C1583       C  0.51790090  0.99822585  0.00290393     0.07300
C1584       C  0.52655086  0.98936781  0.01997006    -0.07300
C1585       C  0.55326859  0.98936952  0.02067869     0.04700
C1586       C  0.57203193  0.99870891  0.00410994    -0.14500
C1587       C  0.56319750  0.00729879  0.98695817    -0.07800
C1588       C  0.48879372  0.99656086  0.00263845     0.05700
C1589       C  0.46352534  0.96886392  0.00469742    -0.08900
C1590       C  0.43554348  0.96609192  0.00484640     0.00700
C1591       C  0.43253675  0.99132998  0.00267662     0.00500
C1592       C  0.45783776  0.01913729  0.00093572    -0.12500
C1593       C  0.48588939  0.02194484  0.00100667     0.01000
C1594       C  0.41044730  0.93734872  0.00832287     0.40300
C1595       C  0.51133048  0.05107577  0.00002708     0.36900
C1596       C  0.52752958  0.01455336  0.96791719     0.36700
C1597       C  0.56024898  0.97837221  0.03821104     0.37400
N1598       N  0.39056154  0.91425206  0.01139503    -0.43400
N1599       N  0.53172588  0.07442176  0.99927264    -0.43800
N1600       N  0.56585968  0.96949487  0.05222245    -0.41200
N1601       N  0.52045853  0.02060477  0.95327521    -0.42600
H1602       H  0.57736332  0.01423980  0.97409355     0.13500
H1603       H  0.51214221  0.98207232  0.03271897     0.10000
H1604       H  0.46572837  0.94941441  0.00636127     0.11100
H1605       H  0.45563604  0.03862377  0.99959841     0.16900
C1606       C  0.66856261  0.97526230  0.94300957    -0.01300
C1607       C  0.65065840  0.94475146  0.93962484     0.07300
C1608       C  0.62876100  0.92751689  0.95332615    -0.07300
C1609       C  0.62392212  0.94040013  0.96992393     0.04700
C1610       C  0.64113206  0.97108704  0.97294460    -0.14500
C1611       C  0.66369287  0.98817607  0.95960733    -0.07800
C1612       C  0.65468043  0.93019728  0.92208902     0.05700
C1613       C  0.68061404  0.92879952  0.92033303    -0.08900
C1614       C  0.68469292  0.91388654  0.90461585     0.00700
C1615       C  0.66231634  0.89978014  0.89020886     0.00500
C1616       C  0.63671919  0.90209900  0.89172212    -0.12500
C1617       C  0.63272509  0.91701121  0.90751938     0.01000
C1618       C  0.71224172  0.91379859  0.90370924     0.40300
C1619       C  0.60594825  0.91855729  0.90848542     0.36900
C1620       C  0.69132669  0.99387200  0.92930321     0.36700
C1621       C  0.60156269  0.92166539  0.98383991     0.37400
N1622       N  0.73432172  0.91374485  0.90304545    -0.43400
N1623       N  0.58450199  0.91981332  0.90930292    -0.43800
N1624       N  0.58373342  0.90665353  0.99503911    -0.41200
N1625       N  0.70958024  0.00876751  0.91831116    -0.42600
H1626       H  0.67691284  0.01176301  0.96185919     0.13500
H1627       H  0.61543084  0.90395480  0.95101030     0.10000
H1628       H  0.69757260  0.93906916  0.93147563     0.11100
H1629       H  0.61940596  0.89159584  0.88084515     0.16900
C1630       C  0.96650884  0.51961288  0.99858136    -0.01300
C1631       C  0.99163720  0.51631294  0.99802332     0.07300
C1632       C  0.01959787  0.54134506  0.99639493    -0.07300
C1633       C  0.02282843  0.56956392  0.99549798     0.04700
C1634       C  0.99770174  0.57292995  0.99608045    -0.14500
C1635       C  0.96970573  0.54781618  0.99760143    -0.07800
C1636       C  0.98941549  0.48699915  0.99929111     0.05700
C1637       C  0.97759411  0.46754562  0.98335322    -0.08900
C1638       C  0.97692573  0.44041835  0.98348910     0.00700
C1639       C  0.98851732  0.43259858  0.99976587     0.00500
C1640       C  0.99944233  0.45175571  0.01597808    -0.12500
C1641       C  0.99989519  0.47875085  0.01587010     0.01000
C1642       C  0.96370859  0.42080716  0.96696046     0.40300
C1643       C  0.01095347  0.49755074  0.03297396     0.36900
C1644       C  0.93740858  0.49450189  0.00087037     0.36700
C1645       C  0.05214224  0.59472898  0.99498658     0.37400
N1646       N  0.95313652  0.40508462  0.95371547    -0.43400
N1647       N  0.01970151  0.51260072  0.04669427    -0.43800
N1648       N  0.07562634  0.61492162  0.99465127    -0.41200
N1649       N  0.91410118  0.47437851  0.00277749    -0.42600
H1650       H  0.95035043  0.55031915  0.99824550     0.13500
H1651       H  0.03893811  0.53879350  0.99607795     0.10000
H1652       H  0.96919601  0.47375714  0.97069921     0.11100
H1653       H  0.00817166  0.44586476  0.02860698     0.16900
C1654       C  0.06573213  0.38422432  0.94930027    -0.01300
C1655       C  0.05158019  0.35884228  0.93735408     0.07300
C1656       C  0.02253567  0.33723239  0.94173614    -0.07300
C1657       C  0.00733167  0.34097562  0.95744828     0.04700
C1658       C  0.02120713  0.36686663  0.96893549    -0.14500
C1659       C  0.05037972  0.38820387  0.96473566    -0.07800
C1660       C  0.06712408  0.35390068  0.92076167     0.05700
C1661       C  0.07153741  0.32957484  0.92152795    -0.08900
C1662       C  0.08739220  0.32476722  0.90680454     0.00700
C1663       C  0.09961759  0.34486665  0.89089579     0.00500
C1664       C  0.09408486  0.36862407  0.88982285    -0.12500
C1665       C  0.07784998  0.37311628  0.90445137     0.01000
C1666       C  0.08989154  0.29853975  0.90833058     0.40300
C1667       C  0.07211684  0.39733583  0.90226651     0.36900
C1668       C  0.09628685  0.40598146  0.94645666     0.36700
C1669       C  0.97736292  0.31834842  0.96118559     0.37400
N1670       N  0.09156032  0.27733398  0.90969499    -0.43400
N1671       N  0.06753520  0.41675412  0.90054495    -0.43800
N1672       N  0.95338453  0.30017118  0.96425540    -0.41200
N1673       N  0.12078200  0.42338522  0.94418154    -0.42600
H1674       H  0.06132247  0.40788685  0.97374949     0.13500
H1675       H  0.01169422  0.31749575  0.93277459     0.10000
H1676       H  0.06277671  0.31439896  0.93384331     0.11100
H1677       H  0.10270429  0.38400471  0.87762263     0.16900
C1678       C  0.63784118  0.79461971  0.30858726    -0.01300
C1679       C  0.65102673  0.81518181  0.32400185     0.07300
C1680       C  0.66344782  0.80811823  0.33996982    -0.07300
C1681       C  0.66329214  0.78126676  0.34066618     0.04700
C1682       C  0.65007890  0.76061140  0.32529271    -0.14500
C1683       C  0.63750772  0.76759821  0.30932627    -0.07800
C1684       C  0.65279095  0.84448493  0.32377056     0.05700
C1685       C  0.62684651  0.84615237  0.32487796    -0.08900
C1686       C  0.62799353  0.87350261  0.32634480     0.00700
C1687       C  0.65548425  0.89969365  0.32687253     0.00500
C1688       C  0.68132752  0.89802807  0.32507655    -0.12500
C1689       C  0.68019981  0.87077890  0.32352930     0.01000
C1690       C  0.60077343  0.87423623  0.32679205     0.40300
C1691       C  0.70746535  0.87034520  0.32157525     0.36900
C1692       C  0.62543216  0.80116211  0.29160741     0.36700
C1693       C  0.67815609  0.77609667  0.35681559     0.37400
N1694       N  0.57898201  0.87488356  0.32704214    -0.43400
N1695       N  0.72930923  0.86998797  0.32000365    -0.43800
N1696       N  0.69016832  0.77199052  0.36970958    -0.41200
N1697       N  0.61550982  0.80641010  0.27798412    -0.42600
H1698       H  0.62757029  0.75196352  0.29737452     0.13500
H1699       H  0.67371286  0.82389841  0.35181274     0.10000
H1700       H  0.60571462  0.82604038  0.32489815     0.11100
H1701       H  0.70250037  0.91810788  0.32519150     0.16900
C1702       C  0.63555025  0.97187936  0.40253197    -0.01300
C1703       C  0.61462431  0.98140220  0.40087893     0.07300
C1704       C  0.60663987  0.98624870  0.38208561    -0.07300
C1705       C  0.61852335  0.98110893  0.36508217     0.04700
C1706       C  0.63898009  0.97100967  0.36668098    -0.14500
C1707       C  0.64733195  0.96654525  0.38548839    -0.07800
C1708       C  0.60009522  0.98592020  0.41833286     0.05700
C1709       C  0.60263889  0.01371172  0.42132837    -0.08900
C1710       C  0.58704005  0.01826409  0.43642243     0.00700
C1711       C  0.56863975  0.99472058  0.44902486     0.00500
C1712       C  0.56686712  0.96720499  0.44637393    -0.12500
C1713       C  0.58189108  0.96248118  0.43102278     0.01000
C1714       C  0.59063752  0.04735742  0.43878056     0.40300
C1715       C  0.57673749  0.93294095  0.42788181     0.36900
C1716       C  0.64556354  0.96782334  0.42149886     0.36700
C1717       C  0.60833342  0.98507782  0.34615966     0.37400
N1718       N  0.59352998  0.07067784  0.44066718    -0.43400
N1719       N  0.57255571  0.90924750  0.42538554    -0.43800
N1720       N  0.60022471  0.98823911  0.33096846    -0.41200
N1721       N  0.65347610  0.96442220  0.43669886    -0.42600
H1722       H  0.66320507  0.95903639  0.38684010     0.13500
H1723       H  0.59051872  0.99343857  0.38069643     0.10000
H1724       H  0.61653138  0.03180996  0.41160621     0.11100
H1725       H  0.55261066  0.94889230  0.45579408     0.16900
C1726       C  0.21208949  0.36243426  0.33650427    -0.01300
C1727       C  0.18397053  0.33740661  0.33437378     0.07300
C1728       C  0.18152036  0.30959792  0.33185670    -0.07300
C1729       C  0.20659451  0.30646168  0.33147031     0.04700
C1730       C  0.23477973  0.33159385  0.33333565    -0.14500
C1731       C  0.23713996  0.35936039  0.33591724    -0.07800
C1732       C  0.15696379  0.33995647  0.33459810     0.05700
C1733       C  0.15336494  0.35706347  0.32008205    -0.08900
C1734       C  0.12856876  0.36059987  0.31998333     0.00700
C1735       C  0.10664450  0.34649362  0.33444513     0.00500
C1736       C  0.11024293  0.32949289  0.34902248    -0.12500
C1737       C  0.13515785  0.32610189  0.34920156     0.01000
C1738       C  0.12668959  0.37971464  0.30538877     0.40300
C1739       C  0.13814822  0.30882436  0.36470718     0.36900
C1740       C  0.21572418  0.39138049  0.33978711     0.36700
C1741       C  0.20276241  0.27717616  0.32993696     0.37400
N1742       N  0.12555583  0.39534879  0.29377293    -0.43400
N1743       N  0.14054338  0.29494540  0.37711611    -0.43800
N1744       N  0.19973744  0.25372112  0.32875515    -0.41200
N1745       N  0.21853902  0.41453516  0.34241783    -0.42600
H1746       H  0.25870526  0.37876919  0.33743772     0.13500
H1747       H  0.15991220  0.29027422  0.33027476     0.10000
H1748       H  0.17013447  0.36786509  0.30887888     0.11100
H1749       H  0.09339962  0.31864362  0.36017395     0.16900
C1750       C  0.00703070  0.37374671  0.39292433    -0.01300
C1751       C  0.02716642  0.40280932  0.39869854     0.07300
C1752       C  0.05333217  0.41900087  0.38808753    -0.07300
C1753       C  0.05985945  0.40649821  0.37200345     0.04700
C1754       C  0.03991741  0.37717123  0.36631515    -0.14500
C1755       C  0.01346136  0.36118796  0.37679076    -0.07800
C1756       C  0.02137056  0.41696875  0.41568174     0.05700
C1757       C  0.02454963  0.40891997  0.43484466    -0.08900
C1758       C  0.02071640  0.42294489  0.45125828     0.00700
C1759       C  0.01365186  0.44563375  0.44853706     0.00500
C1760       C  0.00979664  0.45301755  0.42923875    -0.12500
C1761       C  0.01360910  0.43895665  0.41291747     0.01000
C1762       C  0.02341881  0.41301157  0.47060684     0.40300
C1763       C  0.00920743  0.44725340  0.39344751     0.36900
C1764       C  0.97954578  0.35662064  0.40321369     0.36700
C1765       C  0.08679535  0.42451208  0.36131313     0.37400
N1766       N  0.02549522  0.40496632  0.48610553    -0.43400
N1767       N  0.00559028  0.45382958  0.37784547    -0.43800
N1768       N  0.10842185  0.43896793  0.35279699    -0.41200
N1769       N  0.95751150  0.34296531  0.41147798    -0.42600
H1770       H  0.99801600  0.33871668  0.37253952     0.13500
H1771       H  0.06867775  0.44147051  0.39241836     0.10000
H1772       H  0.03026296  0.39176073  0.43695043     0.11100
H1773       H  0.00422651  0.47021050  0.42681100     0.16900
C1774       C  0.75956924  0.08969033  0.08148475    -0.01300
C1775       C  0.72929638  0.08016841  0.08240894     0.07300
C1776       C  0.71789975  0.08654734  0.09918444    -0.07300
C1777       C  0.73618118  0.10241295  0.11494937     0.04700
C1778       C  0.76670032  0.11184793  0.11422553    -0.14500
C1779       C  0.77788578  0.10519976  0.09729944    -0.07800
C1780       C  0.70924740  0.06411450  0.06581798     0.05700
C1781       C  0.70359072  0.03560292  0.06117192    -0.08900
C1782       C  0.68432667  0.01958078  0.04583928     0.00700
C1783       C  0.67060441  0.03232292  0.03469292     0.00500
C1784       C  0.67655832  0.06099883  0.03933159    -0.12500
C1785       C  0.69554056  0.07682244  0.05477938     0.01000
C1786       C  0.67801367  0.98969557  0.04250884     0.40300
C1787       C  0.70088079  0.10619249  0.05893177     0.36900
C1788       C  0.77247249  0.08470811  0.06414639     0.36700
C1789       C  0.72290609  0.10932130  0.13123803     0.37400
N1790       N  0.67297421  0.96575206  0.03982842    -0.43400
N1791       N  0.70515262  0.12970015  0.06235243    -0.43800
N1792       N  0.71219125  0.11492827  0.14420995    -0.41200
N1793       N  0.78275999  0.08079743  0.05019397    -0.42600
H1794       H  0.80115811  0.11232257  0.09625785     0.13500
H1795       H  0.69456744  0.07935747  0.09983260     0.10000
H1796       H  0.71387447  0.02567301  0.06980102     0.11100
H1797       H  0.66628693  0.07107982  0.03085146     0.16900
C1798       C  0.93479038  0.29662571  0.05028333    -0.01300
C1799       C  0.94918383  0.30634416  0.06861328     0.07300
C1800       C  0.97503265  0.33372847  0.06985198    -0.07300
C1801       C  0.98638826  0.35160078  0.05316352     0.04700
C1802       C  0.97195874  0.34185955  0.03486881    -0.14500
C1803       C  0.94640922  0.31429988  0.03354924    -0.07800
C1804       C  0.93725195  0.28814417  0.08658350     0.05700
C1805       C  0.93614349  0.26081769  0.08748712    -0.08900
C1806       C  0.92204434  0.24138796  0.10308996     0.00700
C1807       C  0.90827321  0.24911948  0.11808886     0.00500
C1808       C  0.91123286  0.27741109  0.11778464    -0.12500
C1809       C  0.92561227  0.29690318  0.10222188     0.01000
C1810       C  0.92233514  0.21385852  0.10326810     0.40300
C1811       C  0.92691107  0.32518130  0.10215267     0.36900
C1812       C  0.90741245  0.26919743  0.04849689     0.36700
C1813       C  0.01291898  0.37976296  0.05508178     0.37400
N1814       N  0.92268557  0.19186606  0.10340485    -0.43400
N1815       N  0.92806294  0.34789469  0.10212545    -0.43800
N1816       N  0.03416056  0.40236047  0.05657266    -0.41200
N1817       N  0.88541016  0.24727235  0.04714502    -0.42600
H1818       H  0.93510865  0.30699268  0.01953786     0.13500
H1819       H  0.98619797  0.34117404  0.08389042     0.10000
H1820       H  0.94583183  0.25444071  0.07572184     0.11100
H1821       H  0.90125023  0.28392297  0.12926464     0.16900
C1822       C  0.73004756  0.07616817  0.24302175    -0.01300
C1823       C  0.74057441  0.06108782  0.25479527     0.07300
C1824       C  0.76822089  0.06421678  0.25064471    -0.07300
C1825       C  0.78580226  0.08264318  0.23547002     0.04700
C1826       C  0.77559865  0.09832248  0.22381367    -0.14500
C1827       C  0.74746413  0.09445191  0.22769116    -0.07800
C1828       C  0.72313058  0.04162533  0.27137125     0.05700
C1829       C  0.69548332  0.01704284  0.26749332    -0.08900
C1830       C  0.67936724  0.99713126  0.28247826     0.00700
C1831       C  0.69111719  0.00140493  0.30167906     0.00500
C1832       C  0.71824939  0.02647844  0.30575820    -0.12500
C1833       C  0.73427967  0.04656612  0.29080851     0.01000
C1834       C  0.65062435  0.97267590  0.27793756     0.40300
C1835       C  0.76207587  0.07211416  0.29574545     0.36900
C1836       C  0.70187147  0.07397912  0.24678024     0.36700
C1837       C  0.81395622  0.08451610  0.23217848     0.37400
N1838       N  0.62749861  0.95313682  0.27442709    -0.43400
N1839       N  0.78438337  0.09259764  0.29962501    -0.43800
N1840       N  0.83653515  0.08603024  0.22961977    -0.41200
N1841       N  0.67926134  0.07215977  0.24979090    -0.42600
H1842       H  0.73920484  0.10627156  0.21899895     0.13500
H1843       H  0.77614656  0.05213307  0.25938941     0.10000
H1844       H  0.68668659  0.01313767  0.25263700     0.11100
H1845       H  0.72724047  0.02996410  0.32054769     0.16900
C1846       C  0.94402353  0.23861009  0.25329281    -0.01300
C1847       C  0.95133258  0.26805236  0.25680231     0.07300
C1848       C  0.94037120  0.28157964  0.24420173    -0.07300
C1849       C  0.92181808  0.26616374  0.22846198     0.04700
C1850       C  0.91339745  0.23611550  0.22525111    -0.14500
C1851       C  0.92495151  0.22285437  0.23783232    -0.07800
C1852       C  0.97135279  0.28569085  0.27300674     0.05700
C1853       C  0.99842509  0.31032196  0.26818355    -0.08900
C1854       C  0.01821764  0.32749186  0.28289804     0.00700
C1855       C  0.01100351  0.32005881  0.30290430     0.00500
C1856       C  0.98346577  0.29601142  0.30776189    -0.12500
C1857       C  0.96362828  0.27883929  0.29300487     0.01000
C1858       C  0.04548813  0.35296297  0.27707367     0.40300
C1859       C  0.93543543  0.25450112  0.29869418     0.36900
C1860       C  0.95672211  0.22448357  0.26486847     0.36700
C1861       C  0.91229226  0.28220266  0.21592221     0.37400
N1862       N  0.06718672  0.37342253  0.27221503    -0.43400
N1863       N  0.91284981  0.23494449  0.30322581    -0.43800
N1864       N  0.90503417  0.29535912  0.20586056    -0.41200
N1865       N  0.96701513  0.21321441  0.27407714    -0.42600
H1866       H  0.91944095  0.20014986  0.23548156     0.13500
H1867       H  0.94646783  0.30443919  0.24667505     0.10000
H1868       H  0.00419330  0.31599473  0.25281905     0.11100
H1869       H  0.97774784  0.29023355  0.32311724     0.16900
C1870       C  0.74487273  0.30417494  0.17900059    -0.01300
C1871       C  0.73233130  0.27392428  0.18330410     0.07300
C1872       C  0.70292012  0.25812981  0.18946431    -0.07300
C1873       C  0.68567142  0.27173698  0.19086221     0.04700
C1874       C  0.69793741  0.30198015  0.18598399    -0.14500
C1875       C  0.72774407  0.31783905  0.18035913    -0.07800
C1876       C  0.74943495  0.25830018  0.18132551     0.05700
C1877       C  0.77482587  0.26741006  0.19279017    -0.08900
C1878       C  0.79158826  0.25331812  0.19123722     0.00700
C1879       C  0.78269972  0.22929697  0.17820695     0.00500
C1880       C  0.75710789  0.21999570  0.16690906    -0.12500
C1881       C  0.74065664  0.23442400  0.16821673     0.01000
C1882       C  0.81702498  0.26314263  0.20379789     0.40300
C1883       C  0.71538067  0.22492557  0.15552538     0.36900
C1884       C  0.77502978  0.32151710  0.17256570     0.36700
C1885       C  0.65580193  0.25406137  0.19774246     0.37400
N1886       N  0.83732568  0.27100563  0.21394892    -0.43400
N1887       N  0.69514389  0.21738896  0.14535184    -0.43800
N1888       N  0.63190455  0.23971915  0.20329633    -0.41200
N1889       N  0.79921969  0.33546484  0.16747990    -0.42600
H1890       H  0.73775553  0.34100958  0.17656627     0.13500
H1891       H  0.69338793  0.23496482  0.19319124     0.10000
H1892       H  0.78144690  0.28549025  0.20307857     0.11100
H1893       H  0.75024746  0.20173557  0.15674046     0.16900
C1894       C  0.92085500  0.08979337  0.17298854    -0.01300
C1895       C  0.92384415  0.08024734  0.15420716     0.07300
C1896       C  0.91214272  0.08706158  0.13778872    -0.07300
C1897       C  0.89740958  0.10319028  0.13982611     0.04700
C1898       C  0.89436399  0.11302559  0.15875358    -0.14500
C1899       C  0.90628395  0.10599560  0.17513218    -0.07800
C1900       C  0.93900438  0.06290999  0.15155456     0.05700
C1901       C  0.92424333  0.03304178  0.15672309    -0.08900
C1902       C  0.93837099  0.01624654  0.15573177     0.00700
C1903       C  0.96807282  0.02950014  0.14939488     0.00500
C1904       C  0.98254767  0.05946036  0.14393775    -0.12500
C1905       C  0.96828758  0.07612075  0.14495344     0.01000
C1906       C  0.92204562  0.98596103  0.16220677     0.40300
C1907       C  0.98434066  0.10694519  0.13968724     0.36900
C1908       C  0.93297718  0.08350479  0.19023614     0.36700
C1909       C  0.88542972  0.10873109  0.12219092     0.37400
N1910       N  0.90879457  0.96172638  0.16745122    -0.43400
N1911       N  0.99717474  0.13166603  0.13550391    -0.43800
N1912       N  0.87583409  0.11307303  0.10802245    -0.41200
N1913       N  0.94276226  0.07841993  0.20400075    -0.42600
H1914       H  0.90439637  0.11325852  0.18974350     0.13500
H1915       H  0.91438947  0.07955222  0.12333427     0.10000
H1916       H  0.90172251  0.02298151  0.16193217     0.11100
H1917       H  0.00517317  0.07003902  0.13892274     0.16900
loop_ 
_geom_bond_atom_site_label_1 
_geom_bond_atom_site_label_2 
_geom_bond_distance 
_geom_bond_site_symmetry_2 
_ccdc_geom_bond_type 
Zn1           O5   1.955       .  S
Zn1           O6   2.022       .  S
Zn1          O10   2.024       .  S
Zn1          O17   2.009       .  S
Zn2           O5   1.959       .  S
Zn2           O7   2.021       .  S
Zn2           O9   2.007       .  S
Zn2          O13   2.017       .  S
Zn3           O5   1.948       .  S
Zn3           O8   2.004       .  S
Zn3          O11   1.996       .  S
Zn3          O14   2.009       .  S
Zn4           O5   1.959       .  S
Zn4          O12   2.016       .  S
Zn4          O15   2.013       .  S
Zn4          O16   2.023       .  S
O6           C18   1.275       .  A
O7           C19   1.274       .  A
O8           C20   1.271       .  A
O9           C18   1.272       .  A
O10          C20   1.275       .  A
O11          C19   1.271       .  A
O12          C21   1.273       .  A
O13          C22   1.274       .  A
O14          C21   1.273       .  A
O15          C22   1.273       .  A
O16          C23   1.275       .  A
O17          C23   1.273       .  A
C18        C1850   1.493       .  S
C19        C1807   1.485       .  S
C20        C1898   1.493       .  S
C21        C1778   1.492       .  S
C22        C1879   1.479       .  S
C23        C1826   1.490       .  S
C24        C1855   1.480       .  S
C24          C25   1.405       .  A
C24          C29   1.401       .  A
C25          C26   1.407       .  A
C25          H30   1.084       .  S
C26        C1754   1.485       .  S
C26          C27   1.405       .  A
C27          C28   1.400       .  A
C27          H31   1.084       .  S
C28        C1735   1.475       .  S
C28          C29   1.398       .  A
C29          H32   1.085       .  S
C33        C1831   1.479   1_565  S
C33          C34   1.402       .  A
C33          C38   1.401       .  A
C34          C35   1.406       .  A
C34          H39   1.084   1_565  S
C35        C1706   1.485       .  S
C35          C36   1.406       .  A
C36          C37   1.404       .  A
C36          H40   1.084       .  S
C37        C1687   1.481       .  S
C37          C38   1.400       .  A
C38          H41   1.084       .  S
C42        C1802   1.474       .  S
C42          C43   1.400       .  A
C42          C47   1.402       .  A
C43          C44   1.401       .  A
C43          H48   1.084       .  S
C44        C1639   1.482   1_554  S
C44          C45   1.403   1_654  A
C45          C46   1.403       .  A
C45          H49   1.084       .  S
C46        C1658   1.480       .  S
C46          C47   1.404   1_456  A
C47          H50   1.084       .  S
C51        C1783   1.487       .  S
C51          C52   1.405       .  A
C51          C56   1.407       .  A
C52          C53   1.402   1_545  A
C52          H57   1.084       .  S
C53        C1586   1.482       .  S
C53          C54   1.400   1_554  A
C54          C55   1.401       .  A
C54          H58   1.084       .  S
C55        C1610   1.478       .  S
C55          C56   1.403   1_566  A
C56          H59   1.083       .  S
Zn60         O64   1.962       .  S
Zn60         O65   2.019       .  S
Zn60         O69   2.030       .  S
Zn60         O76   2.032       .  S
Zn61         O64   1.961       .  S
Zn61         O66   2.022       .  S
Zn61         O68   2.012       .  S
Zn61         O72   2.011       .  S
Zn62         O64   1.950       .  S
Zn62         O67   2.005       .  S
Zn62         O70   2.021       .  S
Zn62         O73   1.996       .  S
Zn63         O64   1.961       .  S
Zn63         O71   2.028       .  S
Zn63         O74   2.003       .  S
Zn63         O75   2.023       .  S
O65          C77   1.275       .  A
O66          C78   1.274       .  A
O67          C79   1.272       .  A
O68          C77   1.274       .  A
O69          C79   1.276       .  A
O70          C78   1.273       .  A
O71          C80   1.275       .  A
O72          C81   1.272       .  A
O73          C80   1.272       .  A
O74          C81   1.273       .  A
O75          C82   1.273       .  A
O76          C82   1.275       .  A
C77        C1471   1.486       .  S
C78        C1447   1.490       .  S
C79        C1543   1.493       .  S
C80        C1490   1.481       .  S
C81        C1562   1.475       .  S
C82        C1519   1.494       .  S
Zn83         O87   1.946       .  S
Zn83         O88   2.005       .  S
Zn83         O92   1.991       .  S
Zn83         O99   1.991       .  S
Zn84         O87   1.952       .  S
Zn84         O89   2.013       .  S
Zn84         O91   2.033       .  S
Zn84         O95   2.008       .  S
Zn85         O87   1.961       .  S
Zn85         O90   2.018       .  S
Zn85         O93   2.027       .  S
Zn85         O96   2.015       .  S
Zn86         O87   1.968       .  S
Zn86         O94   2.029       .  S
Zn86         O97   2.021       .  S
Zn86         O98   2.035       .  S
O88         C100   1.272       .  A
O89         C101   1.273       .  A
O90         C102   1.275       .  A
O91         C100   1.274       .  A
O92         C102   1.270       .  A
O93         C101   1.275       .  A
O94         C103   1.276       .  A
O95         C104   1.274       .  A
O96         C103   1.273       .  A
O97         C104   1.274       .  A
O98         C105   1.275       .  A
O99         C105   1.270       .  A
C100       C1322   1.494       .  S
C101       C1351   1.491       .  S
C102       C1394   1.488       .  S
C103       C1423   1.494       .  S
C104       C1370   1.491       .  S
C105       C1615   1.488       .  S
C106       C1495   1.484       .  S
C106        C107   1.402       .  A
C106        C111   1.406       .  A
C107        C108   1.398       .  A
C107        H112   1.084       .  S
C108       C1298   1.478       .  S
C108        C109   1.401       .  A
C109        C110   1.404       .  A
C109        H113   1.084       .  S
C110       C1346   1.486       .  S
C110        C111   1.406       .  A
C111        H114   1.083       .  S
C115       C1375   1.480       .  S
C115        C116   1.403       .  A
C115        C120   1.404       .  A
C116        C117   1.402       .  A
C116        H121   1.084       .  S
C117       C1255   1.480       .  S
C117        C118   1.400       .  A
C118        C119   1.402       .  A
C118        H122   1.084       .  S
C119       C1279   1.480       .  S
C119        C120   1.403       .  A
C120        H123   1.083   1_545  S
C124       C1399   1.478       .  S
C124        C125   1.403       .  A
C124        C129   1.402   1_556  A
C125        C126   1.404   1_556  A
C125        H130   1.084       .  S
C126       C1202   1.483       .  S
C126        C127   1.403       .  A
C127        C128   1.399       .  A
C127        H131   1.084       .  S
C128       C1231   1.471       .  S
C128        C129   1.398       .  A
C129        H132   1.084       .  S
Zn133       O137   1.960       .  S
Zn133       O138   2.018       .  S
Zn133       O142   2.016       .  S
Zn133       O149   2.019       .  S
Zn134       O137   1.951   1_655  S
Zn134       O139   2.002       .  S
Zn134       O141   2.014       .  S
Zn134       O145   2.007       .  S
Zn135       O137   1.957       .  S
Zn135       O140   2.004       .  S
Zn135       O143   2.021       .  S
Zn135       O146   2.029       .  S
Zn136       O137   1.943   1_655  S
Zn136       O144   2.001       .  S
Zn136       O147   2.002       .  S
Zn136       O148   1.995       .  S
O138        C150   1.273       .  A
O139        C151   1.272   1_655  A
O140        C152   1.273       .  A
O141        C150   1.274   1_655  A
O142        C152   1.275       .  A
O143        C151   1.274       .  A
O144        C153   1.271       .  A
O145        C154   1.273       .  A
O146        C153   1.274   1_455  A
O147        C154   1.272       .  A
O148        C155   1.271   1_655  A
O149        C155   1.273       .  A
C150       C1106   1.489       .  S
C151       C1759   1.486       .  S
C152       C1082   1.487       .  S
C153       C1135   1.493       .  S
C154       C1178   1.487       .  S
C155       C1159   1.470   1_455  S
Zn156       O160   1.964       .  S
Zn156       O161   2.019       .  S
Zn156       O165   2.027       .  S
Zn156       O172   2.026       .  S
Zn157       O160   1.954       .  S
Zn157       O162   2.010       .  S
Zn157       O164   2.001       .  S
Zn157       O168   2.011       .  S
Zn158       O160   1.953       .  S
Zn158       O163   2.021       .  S
Zn158       O166   2.020       .  S
Zn158       O169   2.027       .  S
Zn159       O160   1.949       .  S
Zn159       O167   2.004       .  S
Zn159       O170   2.010       .  S
Zn159       O171   1.995       .  S
O161        C173   1.275       .  A
O162        C174   1.273       .  A
O163        C175   1.275       .  A
O164        C173   1.271       .  A
O165        C175   1.274       .  A
O166        C174   1.274       .  A
O167        C176   1.271       .  A
O168        C177   1.271       .  A
O169        C176   1.276       .  A
O170        C177   1.273       .  A
O171        C178   1.272       .  A
O172        C178   1.274       .  A
C173       C1058   1.485       .  S
C174       C1015   1.482       .  S
C175       C1039   1.489       .  S
C176        C962   1.493       .  S
C177       C1226   1.492       .  S
C178        C991   1.489       .  S
C179       C1514   1.486       .  S
C179        C180   1.403       .  A
C179        C184   1.407       .  A
C180        C181   1.403       .  A
C180        H185   1.084       .  S
C181       C1682   1.484       .  S
C181        C182   1.401       .  A
C182        C183   1.406       .  A
C182        H186   1.084       .  S
C183       C1010   1.492       .  S
C183        C184   1.409       .  A
C184        H187   1.083       .  S
C188       C1034   1.477       .  S
C188        C189   1.403       .  A
C188        C193   1.403       .  A
C189        C190   1.405       .  A
C189        H194   1.083       .  S
C190        C938   1.488       .  S
C190        C191   1.402       .  A
C191        C192   1.401       .  A
C191        H195   1.084       .  S
C192       C1111   1.481       .  S
C192        C193   1.404       .  A
C193        H196   1.084   1_455  S
Zn197       O201   1.958   1_565  S
Zn197       O202   2.010       .  S
Zn197       O206   2.021       .  S
Zn197       O213   2.015       .  S
Zn198       O201   1.966   1_565  S
Zn198       O203   2.033       .  S
Zn198       O205   2.029       .  S
Zn198       O209   2.011       .  S
Zn199       O201   1.946       .  S
Zn199       O204   1.996       .  S
Zn199       O207   2.008       .  S
Zn199       O210   2.011       .  S
Zn200       O201   1.958       .  S
Zn200       O208   2.014       .  S
Zn200       O211   2.005       .  S
Zn200       O212   2.021       .  S
O202        C214   1.273       .  A
O203        C215   1.275   1_565  A
O204        C216   1.271       .  A
O205        C214   1.275       .  A
O206        C216   1.275   1_565  A
O207        C215   1.272       .  A
O208        C217   1.273       .  A
O209        C218   1.273       .  A
O210        C217   1.272       .  A
O211        C218   1.274   1_545  A
O212        C219   1.273   1_545  A
O213        C219   1.273       .  A
C214        C914   1.484       .  S
C215        C871   1.481       .  S
C216       C1274   1.491       .  S
C217        C842   1.492       .  S
C218        C890   1.487       .  S
C219       C1711   1.484       .  S
Zn220       O224   1.966       .  S
Zn220       O225   2.020       .  S
Zn220       O229   2.035       .  S
Zn220       O236   2.032       .  S
Zn221       O224   1.970       .  S
Zn221       O226   2.038       .  S
Zn221       O228   2.035       .  S
Zn221       O232   2.024       .  S
Zn222       O224   1.950       .  S
Zn222       O227   1.999       .  S
Zn222       O230   2.001       .  S
Zn222       O233   2.032       .  S
Zn223       O224   1.952       .  S
Zn223       O231   2.011       .  S
Zn223       O234   2.015       .  S
Zn223       O235   2.009       .  S
O225        C237   1.274       .  A
O226        C238   1.276       .  A
O227        C239   1.273       .  A
O228        C237   1.277       .  A
O229        C239   1.275       .  A
O230        C238   1.273       .  A
O231        C240   1.271       .  A
O232        C241   1.275       .  A
O233        C240   1.275       .  A
O234        C241   1.274       .  A
O235        C242   1.273       .  A
O236        C242   1.276       .  A
C237        C823   1.496       .  S
C238        C746   1.481       .  S
C239        C770   1.495       .  S
C240        C727   1.497       .  S
C241       C1663   1.491       .  S
C242        C794   1.484       .  S
C243       C1442   1.479       .  S
C243        C244   1.401       .  A
C243        C248   1.402       .  A
C244        C245   1.403       .  A
C244        H249   1.084       .  S
C245        C703   1.488       .  S
C245        C246   1.405       .  A
C246        C247   1.406       .  A
C246        H250   1.084       .  S
C247        C775   1.486       .  S
C247        C248   1.405       .  A
C248        H251   1.084       .  S
C252        C751   1.492       .  S
C252        C253   1.404       .  A
C252        C257   1.407       .  A
C253        C254   1.402       .  A
C253        H258   1.084       .  S
C254       C1250   1.483       .  S
C254        C255   1.403       .  A
C255        C256   1.405       .  A
C255        H259   1.083       .  S
C256       C1130   1.488       .  S
C256        C257   1.407       .  A
C257        H260   1.083   1_655  S
Zn261       O265   1.943       .  S
Zn261       O266   1.994       .  S
Zn261       O270   2.014       .  S
Zn261       O277   1.995       .  S
Zn262       O265   1.965       .  S
Zn262       O267   2.014       .  S
Zn262       O269   2.032       .  S
Zn262       O273   2.024       .  S
Zn263       O265   1.949       .  S
Zn263       O268   2.008       .  S
Zn263       O271   1.995       .  S
Zn263       O274   2.002       .  S
Zn264       O265   1.959       .  S
Zn264       O272   2.019       .  S
Zn264       O275   2.017       .  S
Zn264       O276   2.023       .  S
O266        C278   1.271       .  A
O267        C279   1.274       .  A
O268        C280   1.271       .  A
O269        C278   1.275       .  A
O270        C280   1.273       .  A
O271        C279   1.271       .  A
O272        C281   1.275       .  A
O273        C282   1.275       .  A
O274        C281   1.271       .  A
O275        C282   1.274       .  A
O276        C283   1.274       .  A
O277        C283   1.271       .  A
C278        C578   1.491       .  S
C279        C626   1.484       .  S
C280        C674   1.491       .  S
C281        C655   1.492       .  S
C282        C559   1.483       .  S
C283        C602   1.476       .  S
C284       C1466   1.484       .  S
C284        C285   1.404       .  A
C284        C289   1.404       .  A
C285        C286   1.403       .  A
C285        H290   1.084       .  S
C286       C1730   1.482       .  S
C286        C287   1.403       .  A
C287        C288   1.400       .  A
C287        H291   1.084       .  S
C288        C650   1.472       .  S
C288        C289   1.400       .  A
C289        H292   1.084       .  S
C293        C631   1.472       .  S
C293        C294   1.401       .  A
C293        C298   1.400       .  A
C294        C295   1.402       .  A
C294        H299   1.084       .  S
C295        C943   1.479       .  S
C295        C296   1.402       .  A
C296        C297   1.401       .  A
C296        H300   1.084       .  S
C297        C895   1.471       .  S
C297        C298   1.399       .  A
C298        H301   1.085       .  S
C302        C799   1.482       .  S
C302        C303   1.401       .  A
C302        C307   1.406   1_556  A
C303        C304   1.398   1_556  A
C303        H308   1.085       .  S
C304       C1207   1.475       .  S
C304        C305   1.400       .  A
C305        C306   1.405       .  A
C305        H309   1.083       .  S
C306        C607   1.485       .  S
C306        C307   1.407       .  A
C307        H310   1.084       .  S
Zn311       O315   1.964       .  S
Zn311       O316   2.015       .  S
Zn311       O320   2.025       .  S
Zn311       O327   2.017       .  S
Zn312       O315   1.942       .  S
Zn312       O317   1.998       .  S
Zn312       O319   1.992       .  S
Zn312       O323   2.012       .  S
Zn313       O315   1.951       .  S
Zn313       O318   1.994       .  S
Zn313       O321   2.016       .  S
Zn313       O324   2.005       .  S
Zn314       O315   1.949       .  S
Zn314       O322   2.005       .  S
Zn314       O325   2.012       .  S
Zn314       O326   1.995       .  S
O316        C328   1.273       .  A
O317        C329   1.272       .  A
O318        C330   1.271       .  A
O319        C328   1.271       .  A
O320        C330   1.274       .  A
O321        C329   1.273       .  A
O322        C331   1.272       .  A
O323        C332   1.273       .  A
O324        C331   1.273       .  A
O325        C332   1.272       .  A
O326        C333   1.272       .  A
O327        C333   1.273       .  A
C328        C458   1.472       .  S
C329        C482   1.481       .  S
C330        C530   1.482       .  S
C331        C434   1.474       .  S
C332        C506   1.490       .  S
C333        C415   1.489       .  S
C334        C439   1.477       .  S
C334        C335   1.402       .  A
C334        C339   1.401       .  A
C335        C336   1.401       .  A
C335        H340   1.084       .  S
C336       C1303   1.477       .  S
C336        C337   1.402       .  A
C337        C338   1.403       .  A
C337        H341   1.084       .  S
C338       C1154   1.477       .  S
C338        C339   1.400       .  A
C339        H342   1.084   1_655  S
C343        C410   1.482       .  S
C343        C344   1.401       .  A
C343        C348   1.403       .  A
C344        C345   1.400       .  A
C344        H349   1.084       .  S
C345        C698   1.484       .  S
C345        C346   1.404       .  A
C346        C347   1.407       .  A
C346        H350   1.084       .  S
C347        C866   1.487       .  S
C347        C348   1.405       .  A
C348        H351   1.084   1_545  S
C352        C487   1.478       .  S
C352        C353   1.404       .  A
C352        C357   1.405       .  A
C353        C354   1.401       .  A
C353        H358   1.084       .  S
C354       C1634   1.478   1_455  S
C354        C355   1.398   1_456  A
C355        C356   1.401       .  A
C355        H359   1.084       .  S
C356        C986   1.480       .  S
C356        C357   1.404   1_654  A
C357        H360   1.084       .  S
C361        C463   1.478       .  S
C361        C362   1.401   1_556  A
C361        C366   1.403       .  A
C362        C363   1.402   1_565  A
C362        H367   1.084       .  S
C363        C583   1.481       .  S
C363        C364   1.403       .  A
C364        C365   1.401   1_545  A
C364        H368   1.085       .  S
C365       C1591   1.478       .  S
C365        C366   1.402   1_554  A
C366        H369   1.084       .  S
C370        C967   1.495       .  S
C370        N371   1.360       .  A
C370        N375   1.358   1_655  A
N371        C372   1.359   1_565  A
C372       C1903   1.490       .  S
C372        N373   1.360   1_655  A
N373        C374   1.357       .  A
C374        C554   1.473       .  S
C374        N375   1.356   1_545  A
C376       C1183   1.486       .  S
C376        N377   1.358       .  A
C376        N381   1.357       .  A
N377        C378   1.360       .  A
C378        C847   1.485       .  S
C378        N379   1.359       .  A
N379        C380   1.358       .  A
C380       C1538   1.483       .  S
C380        N381   1.355       .  A
C382       C1087   1.478       .  S
C382        N383   1.354       .  A
C382        N387   1.357       .  A
N383        C384   1.355       .  A
C384       C1567   1.486       .  S
C384        N385   1.361       .  A
N385        C386   1.361       .  A
C386        C919   1.485       .  S
C386        N387   1.359       .  A
C388       C1327   1.501       .  S
C388        N389   1.361       .  A
C388        N393   1.365   1_565  A
N389        C390   1.357   1_655  A
C390        C535   1.478       .  S
C390        N391   1.353   1_565  A
N391        C392   1.354       .  A
C392        C722   1.489       .  S
C392        N393   1.362   1_455  A
C394       C1418   1.482       .  S
C394        N395   1.359       .  A
C394        N399   1.359       .  A
N395        C396   1.359       .  A
C396        C818   1.482       .  S
C396        N397   1.358       .  A
N397        C398   1.359       .  A
C398        C511   1.497       .  S
C398        N399   1.360       .  A
C400        C679   1.492       .  S
C400        N401   1.361       .  A
C400        N405   1.357       .  A
N401        C402   1.359       .  A
C402       C1874   1.491       .  S
C402        N403   1.357       .  A
N403        C404   1.355       .  A
C404       C1063   1.484       .  S
C404        N405   1.357       .  A
C406        C407   1.409       .  A
C406        C411   1.401       .  A
C406        C420   1.444       .  S
C407        C412   1.478       .  S
C407        C408   1.400       .  A
C408        C409   1.397       .  A
C408        H427   1.084       .  S
C409        C410   1.414   1_565  A
C409        C421   1.445   1_565  S
C410        C411   1.406   1_545  A
C411        H426   1.084   1_565  S
C412        C413   1.400       .  A
C412        C417   1.406       .  A
C413        C414   1.400       .  A
C413        H428   1.086       .  S
C414        C415   1.419       .  A
C414        C418   1.444       .  S
C415        C416   1.410       .  A
C416        C417   1.396       .  A
C416        H429   1.085       .  S
C417        C419   1.444       .  S
C418        N422   1.157       .  T
C419        N423   1.157       .  T
C420        N425   1.157       .  T
C421        N424   1.157       .  T
C430        C431   1.408       .  A
C430        C435   1.397       .  A
C430        C444   1.444       .  S
C431        C436   1.475       .  S
C431        C432   1.401       .  A
C432        C433   1.399       .  A
C432        H451   1.086       .  S
C433        C434   1.413       .  A
C433        C445   1.444       .  S
C434        C435   1.404       .  A
C435        H450   1.086       .  S
C436        C437   1.401       .  A
C436        C441   1.409       .  A
C437        C438   1.399       .  A
C437        H452   1.084       .  S
C438        C439   1.413   1_455  A
C438        C442   1.444       .  S
C439        C440   1.403       .  A
C440        C441   1.396   1_655  A
C440        H453   1.084       .  S
C441        C443   1.444   1_455  S
C442        N446   1.157       .  T
C443        N447   1.157       .  T
C444        N449   1.157       .  T
C445        N448   1.157       .  T
C454        C455   1.411       .  A
C454        C459   1.397       .  A
C454        C468   1.445       .  S
C455        C460   1.484       .  S
C455        C456   1.405       .  A
C456        C457   1.399       .  A
C456        H475   1.085       .  S
C457        C458   1.410       .  A
C457        C469   1.444       .  S
C458        C459   1.403       .  A
C459        H474   1.085       .  S
C460        C461   1.404       .  A
C460        C465   1.411       .  A
C461        C462   1.398       .  A
C461        H476   1.084       .  S
C462        C463   1.410       .  A
C462        C466   1.443       .  S
C463        C464   1.404       .  A
C464        C465   1.398       .  A
C464        H477   1.084       .  S
C465        C467   1.444       .  S
C466        N470   1.157       .  T
C467        N471   1.157       .  T
C468        N473   1.157       .  T
C469        N472   1.157       .  T
C478        C479   1.407       .  A
C478        C483   1.396       .  A
C478        C492   1.444       .  S
C479        C484   1.477       .  S
C479        C480   1.401       .  A
C480        C481   1.402       .  A
C480        H499   1.085       .  S
C481        C482   1.417       .  A
C481        C493   1.445       .  S
C482        C483   1.405       .  A
C483        H498   1.085       .  S
C484        C485   1.401       .  A
C484        C489   1.407       .  A
C485        C486   1.399       .  A
C485        H500   1.084       .  S
C486        C487   1.411       .  A
C486        C490   1.443       .  S
C487        C488   1.404       .  A
C488        C489   1.400       .  A
C488        H501   1.084   1_455  S
C489        C491   1.444       .  S
C490        N494   1.157   1_556  T
C491        N495   1.157       .  T
C492        N497   1.157       .  T
C493        N496   1.158       .  T
C502        C503   1.407       .  A
C502        C507   1.397       .  A
C502        C516   1.444       .  S
C503        C508   1.481       .  S
C503        C504   1.400       .  A
C504        C505   1.403       .  A
C504        H523   1.085       .  S
C505        C506   1.420       .  A
C505        C517   1.445       .  S
C506        C507   1.407       .  A
C507        H522   1.084       .  S
C508        C509   1.399       .  A
C508        C513   1.406       .  A
C509        C510   1.399       .  A
C509        H524   1.085       .  S
C510        C511   1.422       .  A
C510        C514   1.444       .  S
C511        C512   1.412       .  A
C512        C513   1.401       .  A
C512        H525   1.084       .  S
C513        C515   1.444       .  S
C514        N518   1.157       .  T
C515        N519   1.157       .  T
C516        N521   1.157       .  T
C517        N520   1.158       .  T
C526        C527   1.408       .  A
C526        C531   1.401       .  A
C526        C540   1.443       .  S
C527        C532   1.478       .  S
C527        C528   1.399       .  A
C528        C529   1.397       .  A
C528        H547   1.086       .  S
C529        C530   1.417       .  A
C529        C541   1.445       .  S
C530        C531   1.406       .  A
C531        H546   1.085       .  S
C532        C533   1.399       .  A
C532        C537   1.409       .  A
C533        C534   1.398       .  A
C533        H548   1.084       .  S
C534        C535   1.416       .  A
C534        C538   1.445   1_565  S
C535        C536   1.404       .  A
C536        C537   1.401       .  A
C536        H549   1.084       .  S
C537        C539   1.444       .  S
C538        N542   1.157       .  T
C539        N543   1.157       .  T
C540        N545   1.157       .  T
C541        N544   1.157       .  T
C550        C551   1.411       .  A
C550        C555   1.402       .  A
C550        C564   1.444       .  S
C551        C556   1.484       .  S
C551        C552   1.403       .  A
C552        C553   1.400       .  A
C552        H571   1.086       .  S
C553        C554   1.409       .  A
C553        C565   1.443       .  S
C554        C555   1.402       .  A
C555        H570   1.086       .  S
C556        C557   1.403       .  A
C556        C561   1.409       .  A
C557        C558   1.403       .  A
C557        H572   1.085       .  S
C558        C559   1.415       .  A
C558        C562   1.444       .  S
C559        C560   1.405       .  A
C560        C561   1.400       .  A
C560        H573   1.085       .  S
C561        C563   1.444       .  S
C562        N566   1.157       .  T
C563        N567   1.157       .  T
C564        N569   1.157       .  T
C565        N568   1.157       .  T
C574        C575   1.407       .  A
C574        C579   1.402       .  A
C574        C588   1.444       .  S
C575        C580   1.478       .  S
C575        C576   1.397       .  A
C576        C577   1.397       .  A
C576        H595   1.086       .  S
C577        C578   1.421       .  A
C577        C589   1.445       .  S
C578        C579   1.410       .  A
C579        H594   1.084       .  S
C580        C581   1.402       .  A
C580        C585   1.408       .  A
C581        C582   1.400       .  A
C581        H596   1.084       .  S
C582        C583   1.414       .  A
C582        C586   1.445       .  S
C583        C584   1.405       .  A
C584        C585   1.398       .  A
C584        H597   1.084   1_545  S
C585        C587   1.443       .  S
C586        N590   1.157   1_554  T
C587        N591   1.157       .  T
C588        N593   1.157   1_545  T
C589        N592   1.157       .  T
C598        C599   1.413       .  A
C598        C603   1.402       .  A
C598        C612   1.444       .  S
C599        C604   1.485       .  S
C599        C600   1.402       .  A
C600        C601   1.396       .  A
C600        H619   1.087       .  S
C601        C602   1.413       .  A
C601        C613   1.445       .  S
C602        C603   1.404       .  A
C603        H618   1.086       .  S
C604        C605   1.402       .  A
C604        C609   1.411       .  A
C605        C606   1.397       .  A
C605        H620   1.084       .  S
C606        C607   1.413       .  A
C606        C610   1.443       .  S
C607        C608   1.406       .  A
C608        C609   1.403       .  A
C608        H621   1.083       .  S
C609        C611   1.444       .  S
C610        N614   1.157       .  T
C611        N615   1.157       .  T
C612        N617   1.157       .  T
C613        N616   1.157       .  T
C622        C623   1.407       .  A
C622        C627   1.398       .  A
C622        C636   1.444       .  S
C623        C628   1.476       .  S
C623        C624   1.399       .  A
C624        C625   1.398       .  A
C624        H643   1.084       .  S
C625        C626   1.418       .  A
C625        C637   1.445       .  S
C626        C627   1.407       .  A
C627        H642   1.084       .  S
C628        C629   1.402   1_545  A
C628        C633   1.409       .  A
C629        C630   1.398       .  A
C629        H644   1.085       .  S
C630        C631   1.410       .  A
C630        C634   1.443       .  S
C631        C632   1.402   1_565  A
C632        C633   1.397       .  A
C632        H645   1.085       .  S
C633        C635   1.444       .  S
C634        N638   1.157       .  T
C635        N639   1.157       .  T
C636        N641   1.157   1_545  T
C637        N640   1.157       .  T
C646        C647   1.412       .  A
C646        C651   1.401       .  A
C646        C660   1.444       .  S
C647        C652   1.483       .  S
C647        C648   1.404       .  A
C648        C649   1.398       .  A
C648        H667   1.084       .  S
C649        C650   1.408       .  A
C649        C661   1.444       .  S
C650        C651   1.401       .  A
C651        H666   1.083       .  S
C652        C653   1.400       .  A
C652        C657   1.408       .  A
C653        C654   1.400       .  A
C653        H668   1.084       .  S
C654        C655   1.421       .  A
C654        C658   1.445       .  S
C655        C656   1.409       .  A
C656        C657   1.399       .  A
C656        H669   1.083       .  S
C657        C659   1.444       .  S
C658        N662   1.157       .  T
C659        N663   1.157       .  T
C660        N665   1.157       .  T
C661        N664   1.157       .  T
C670        C671   1.408       .  A
C670        C675   1.399       .  A
C670        C684   1.444       .  S
C671        C676   1.482       .  S
C671        C672   1.400       .  A
C672        C673   1.400       .  A
C672        H691   1.085       .  S
C673        C674   1.420       .  A
C673        C685   1.444       .  S
C674        C675   1.409       .  A
C675        H690   1.084       .  S
C676        C677   1.399       .  A
C676        C681   1.408       .  A
C677        C678   1.400       .  A
C677        H692   1.084       .  S
C678        C679   1.421       .  A
C678        C682   1.444       .  S
C679        C680   1.409       .  A
C680        C681   1.399       .  A
C680        H693   1.083       .  S
C681        C683   1.444       .  S
C682        N686   1.158       .  T
C683        N687   1.157       .  T
C684        N689   1.157       .  T
C685        N688   1.157       .  T
C694        C695   1.409       .  A
C694        C699   1.399       .  A
C694        C708   1.444       .  S
C695        C700   1.481       .  S
C695        C696   1.402       .  A
C696        C697   1.401       .  A
C696        H715   1.084       .  S
C697        C698   1.413       .  A
C697        C709   1.444       .  S
C698        C699   1.405       .  A
C699        H714   1.084       .  S
C700        C701   1.400       .  A
C700        C705   1.409       .  A
C701        C702   1.398       .  A
C701        H716   1.084       .  S
C702        C703   1.416       .  A
C702        C706   1.444       .  S
C703        C704   1.407       .  A
C704        C705   1.402       .  A
C704        H717   1.084       .  S
C705        C707   1.444       .  S
C706        N710   1.157       .  T
C707        N711   1.157       .  T
C708        N713   1.157       .  T
C709        N712   1.157       .  T
C718        C719   1.409       .  A
C718        C723   1.402       .  A
C718        C732   1.443       .  S
C719        C724   1.484       .  S
C719        C720   1.399       .  A
C720        C721   1.400       .  A
C720        H739   1.085       .  S
C721        C722   1.420       .  A
C721        C733   1.445       .  S
C722        C723   1.407       .  A
C723        H738   1.084   1_455  S
C724        C725   1.398       .  A
C724        C729   1.408       .  A
C725        C726   1.401       .  A
C725        H740   1.085       .  S
C726        C727   1.423       .  A
C726        C730   1.443       .  S
C727        C728   1.410       .  A
C728        C729   1.402       .  A
C728        H741   1.084       .  S
C729        C731   1.444       .  S
C730        N734   1.157       .  T
C731        N735   1.157       .  T
C732        N737   1.157       .  T
C733        N736   1.158       .  T
C742        C743   1.412       .  A
C742        C747   1.397       .  A
C742        C756   1.445       .  S
C743        C748   1.490       .  S
C743        C744   1.407       .  A
C744        C745   1.406       .  A
C744        H763   1.085       .  S
C745        C746   1.412       .  A
C745        C757   1.444       .  S
C746        C747   1.404       .  A
C747        H762   1.086       .  S
C748        C749   1.403       .  A
C748        C753   1.411       .  A
C749        C750   1.399       .  A
C749        H764   1.086       .  S
C750        C751   1.416   1_455  A
C750        C754   1.445   1_455  S
C751        C752   1.407   1_655  A
C752        C753   1.403       .  A
C752        H765   1.086       .  S
C753        C755   1.443       .  S
C754        N758   1.157       .  T
C755        N759   1.157       .  T
C756        N761   1.157       .  T
C757        N760   1.157       .  T
C766        C767   1.407       .  A
C766        C771   1.397       .  A
C766        C780   1.445       .  S
C767        C772   1.486       .  S
C767        C768   1.403       .  A
C768        C769   1.404       .  A
C768        H787   1.085       .  S
C769        C770   1.420       .  A
C769        C781   1.444       .  S
C770        C771   1.410       .  A
C771        H786   1.085       .  S
C772        C773   1.404       .  A
C772        C777   1.409       .  A
C773        C774   1.402       .  A
C773        H788   1.083       .  S
C774        C775   1.414       .  A
C774        C778   1.444       .  S
C775        C776   1.405       .  A
C776        C777   1.400       .  A
C776        H789   1.083       .  S
C777        C779   1.444       .  S
C778        N782   1.157       .  T
C779        N783   1.157       .  T
C780        N785   1.157       .  T
C781        N784   1.158       .  T
C790        C791   1.412       .  A
C790        C795   1.401       .  A
C790        C804   1.444       .  S
C791        C796   1.486       .  S
C791        C792   1.401       .  A
C792        C793   1.401       .  A
C792        H811   1.086       .  S
C793        C794   1.416       .  A
C793        C805   1.444       .  S
C794        C795   1.404       .  A
C795        H810   1.086       .  S
C796        C797   1.405       .  A
C796        C801   1.411       .  A
C797        C798   1.402       .  A
C797        H812   1.083       .  S
C798        C799   1.411       .  A
C798        C802   1.444       .  S
C799        C800   1.405       .  A
C800        C801   1.400       .  A
C800        H813   1.084       .  S
C801        C803   1.444       .  S
C802        N806   1.157   1_556  T
C803        N807   1.157       .  T
C804        N809   1.157       .  T
C805        N808   1.157       .  T
C814        C815   1.414       .  A
C814        C819   1.402       .  A
C814        C828   1.444       .  S
C815        C820   1.494       .  S
C815        C816   1.405       .  A
C816        C817   1.402       .  A
C816        H835   1.085       .  S
C817        C818   1.413       .  A
C817        C829   1.444       .  S
C818        C819   1.403       .  A
C819        H834   1.085       .  S
C820        C821   1.403       .  A
C820        C825   1.412       .  A
C821        C822   1.402       .  A
C821        H836   1.084       .  S
C822        C823   1.420       .  A
C822        C826   1.445       .  S
C823        C824   1.409       .  A
C824        C825   1.403       .  A
C824        H837   1.084       .  S
C825        C827   1.444       .  S
C826        N830   1.158       .  T
C827        N831   1.157       .  T
C828        N833   1.157       .  T
C829        N832   1.157       .  T
C838        C839   1.407       .  A
C838        C843   1.400       .  A
C838        C852   1.444       .  S
C839        C844   1.481       .  S
C839        C840   1.400       .  A
C840        C841   1.400       .  A
C840        H859   1.085       .  S
C841        C842   1.420       .  A
C841        C853   1.444       .  S
C842        C843   1.410       .  A
C843        H858   1.084       .  S
C844        C845   1.400       .  A
C844        C849   1.409       .  A
C845        C846   1.401       .  A
C845        H860   1.085       .  S
C846        C847   1.417       .  A
C846        C850   1.444       .  S
C847        C848   1.407       .  A
C848        C849   1.399       .  A
C848        H861   1.084       .  S
C849        C851   1.444       .  S
C850        N854   1.157       .  T
C851        N855   1.157       .  T
C852        N857   1.157       .  T
C853        N856   1.157       .  T
C862        C863   1.411       .  A
C862        C867   1.399       .  A
C862        C876   1.444       .  S
C863        C868   1.487       .  S
C863        C864   1.403   1_545  A
C864        C865   1.403   1_565  A
C864        H883   1.085       .  S
C865        C866   1.415       .  A
C865        C877   1.444   1_545  S
C866        C867   1.404       .  A
C867        H882   1.086       .  S
C868        C869   1.403       .  A
C868        C873   1.411       .  A
C869        C870   1.400       .  A
C869        H884   1.084       .  S
C870        C871   1.414       .  A
C870        C874   1.445       .  S
C871        C872   1.405       .  A
C872        C873   1.403       .  A
C872        H885   1.084   1_545  S
C873        C875   1.444       .  S
C874        N878   1.157       .  T
C875        N879   1.157       .  T
C876        N881   1.157       .  T
C877        N880   1.157       .  T
C886        C887   1.405   1_545  A
C886        C891   1.398       .  A
C886        C900   1.444       .  S
C887        C892   1.474       .  S
C887        C888   1.398       .  A
C888        C889   1.399       .  A
C888        H907   1.086       .  S
C889        C890   1.419       .  A
C889        C901   1.444       .  S
C890        C891   1.409   1_565  A
C891        H906   1.085       .  S
C892        C893   1.401       .  A
C892        C897   1.408       .  A
C893        C894   1.397       .  A
C893        H908   1.084       .  S
C894        C895   1.408       .  A
C894        C898   1.444       .  S
C895        C896   1.403       .  A
C896        C897   1.399       .  A
C896        H909   1.084       .  S
C897        C899   1.443   1_565  S
C898        N902   1.157       .  T
C899        N903   1.157       .  T
C900        N905   1.157       .  T
C901        N904   1.157       .  T
C910        C911   1.411       .  A
C910        C915   1.401       .  A
C910        C924   1.444       .  S
C911        C916   1.485       .  S
C911        C912   1.401       .  A
C912        C913   1.400       .  A
C912        H931   1.086       .  S
C913        C914   1.417       .  A
C913        C925   1.444       .  S
C914        C915   1.405       .  A
C915        H930   1.085       .  S
C916        C917   1.401       .  A
C916        C921   1.410       .  A
C917        C918   1.399       .  A
C917        H932   1.085       .  S
C918        C919   1.416       .  A
C918        C922   1.444       .  S
C919        C920   1.407       .  A
C920        C921   1.402       .  A
C920        H933   1.085       .  S
C921        C923   1.444       .  S
C922        N926   1.157       .  T
C923        N927   1.157       .  T
C924        N929   1.157       .  T
C925        N928   1.157       .  T
C934        C935   1.406       .  A
C934        C939   1.399       .  A
C934        C948   1.444       .  S
C935        C940   1.477       .  S
C935        C936   1.401       .  A
C936        C937   1.400       .  A
C936        H955   1.085       .  S
C937        C938   1.415       .  A
C937        C949   1.444       .  S
C938        C939   1.408       .  A
C939        H954   1.084       .  S
C940        C941   1.401       .  A
C940        C945   1.408       .  A
C941        C942   1.399       .  A
C941        H956   1.084       .  S
C942        C943   1.412       .  A
C942        C946   1.443       .  S
C943        C944   1.404       .  A
C944        C945   1.398       .  A
C944        H957   1.084       .  S
C945        C947   1.444       .  S
C946        N950   1.157       .  T
C947        N951   1.157       .  T
C948        N953   1.157       .  T
C949        N952   1.157       .  T
C958        C959   1.406       .  A
C958        C963   1.399       .  A
C958        C972   1.444       .  S
C959        C964   1.480       .  S
C959        C960   1.399       .  A
C960        C961   1.402       .  A
C960        H979   1.084       .  S
C961        C962   1.422       .  A
C961        C973   1.445       .  S
C962        C963   1.409       .  A
C963        H978   1.083       .  S
C964        C965   1.399       .  A
C964        C969   1.405       .  A
C965        C966   1.401       .  A
C965        H980   1.086       .  S
C966        C967   1.422       .  A
C966        C970   1.444   1_655  S
C967        C968   1.411       .  A
C968        C969   1.400       .  A
C968        H981   1.084       .  S
C969        C971   1.444       .  S
C970        N974   1.158       .  T
C971        N975   1.157       .  T
C972        N977   1.157       .  T
C973        N976   1.158       .  T
C982        C983   1.409       .  A
C982        C987   1.395       .  A
C982        C996   1.444       .  S
C983        C988   1.480       .  S
C983        C984   1.403       .  A
C984        C985   1.401       .  A
C984       H1003   1.087       .  S
C985        C986   1.413       .  A
C985        C997   1.442   1_655  S
C986        C987   1.404       .  A
C987       H1002   1.087       .  S
C988        C989   1.402       .  A
C988        C993   1.406       .  A
C989        C990   1.400       .  A
C989       H1004   1.086       .  S
C990        C991   1.418       .  A
C990        C994   1.444       .  S
C991        C992   1.410       .  A
C992        C993   1.397       .  A
C992       H1005   1.085       .  S
C993        C995   1.444       .  S
C994        N998   1.157       .  T
C995        N999   1.157       .  T
C996       N1001   1.157       .  T
C997       N1000   1.157       .  T
C1006      C1007   1.410       .  A
C1006      C1011   1.400       .  A
C1006      C1020   1.444       .  S
C1007      C1012   1.488       .  S
C1007      C1008   1.403       .  A
C1008      C1009   1.402       .  A
C1008      H1027   1.085       .  S
C1009      C1010   1.415       .  A
C1009      C1021   1.442       .  S
C1010      C1011   1.407       .  A
C1011      H1026   1.085       .  S
C1012      C1013   1.404       .  A
C1012      C1017   1.411       .  A
C1013      C1014   1.401       .  A
C1013      H1028   1.084       .  S
C1014      C1015   1.414       .  A
C1014      C1018   1.444       .  S
C1015      C1016   1.405       .  A
C1016      C1017   1.401       .  A
C1016      H1029   1.084       .  S
C1017      C1019   1.444       .  S
C1018      N1022   1.157       .  T
C1019      N1023   1.157       .  T
C1020      N1025   1.157       .  T
C1021      N1024   1.157       .  T
C1030      C1031   1.414       .  A
C1030      C1035   1.403   1_655  A
C1030      C1044   1.443       .  S
C1031      C1036   1.493       .  S
C1031      C1032   1.407       .  A
C1032      C1033   1.400       .  A
C1032      H1051   1.084       .  S
C1033      C1034   1.408   1_655  A
C1033      C1045   1.444       .  S
C1034      C1035   1.402       .  A
C1035      H1050   1.085       .  S
C1036      C1037   1.405       .  A
C1036      C1041   1.412       .  A
C1037      C1038   1.405       .  A
C1037      H1052   1.083       .  S
C1038      C1039   1.417       .  A
C1038      C1042   1.444       .  S
C1039      C1040   1.405       .  A
C1040      C1041   1.399       .  A
C1040      H1053   1.083       .  S
C1041      C1043   1.445       .  S
C1042      N1046   1.157       .  T
C1043      N1047   1.157       .  T
C1044      N1049   1.157       .  T
C1045      N1048   1.157       .  T
C1054      C1055   1.411       .  A
C1054      C1059   1.398       .  A
C1054      C1068   1.445       .  S
C1055      C1060   1.485       .  S
C1055      C1056   1.402       .  A
C1056      C1057   1.400       .  A
C1056      H1075   1.085       .  S
C1057      C1058   1.418       .  A
C1057      C1069   1.445       .  S
C1058      C1059   1.405       .  A
C1059      H1074   1.085       .  S
C1060      C1061   1.402       .  A
C1060      C1065   1.411       .  A
C1061      C1062   1.398       .  A
C1061      H1076   1.085       .  S
C1062      C1063   1.416       .  A
C1062      C1066   1.444       .  S
C1063      C1064   1.407       .  A
C1064      C1065   1.399       .  A
C1064      H1077   1.084       .  S
C1065      C1067   1.444       .  S
C1066      N1070   1.157       .  T
C1067      N1071   1.157       .  T
C1068      N1073   1.157       .  T
C1069      N1072   1.157       .  T
C1078      C1079   1.410       .  A
C1078      C1083   1.400       .  A
C1078      C1092   1.444       .  S
C1079      C1084   1.484       .  S
C1079      C1080   1.401       .  A
C1080      C1081   1.398       .  A
C1080      H1099   1.085       .  S
C1081      C1082   1.419       .  A
C1081      C1093   1.445       .  S
C1082      C1083   1.407       .  A
C1083      H1098   1.084       .  S
C1084      C1085   1.402       .  A
C1084      C1089   1.412       .  A
C1085      C1086   1.398       .  A
C1085      H1100   1.088       .  S
C1086      C1087   1.415       .  A
C1086      C1090   1.444       .  S
C1087      C1088   1.403       .  A
C1088      C1089   1.398       .  A
C1088      H1101   1.088       .  S
C1089      C1091   1.444       .  S
C1090      N1094   1.157       .  T
C1091      N1095   1.157       .  T
C1092      N1097   1.157       .  T
C1093      N1096   1.158       .  T
C1102      C1103   1.410   1_655  A
C1102      C1107   1.400       .  A
C1102      C1116   1.444       .  S
C1103      C1108   1.488       .  S
C1103      C1104   1.403       .  A
C1104      C1105   1.401       .  A
C1104      H1123   1.085       .  S
C1105      C1106   1.417       .  A
C1105      C1117   1.445       .  S
C1106      C1107   1.408   1_455  A
C1107      H1122   1.085       .  S
C1108      C1109   1.406       .  A
C1108      C1113   1.412       .  A
C1109      C1110   1.403       .  A
C1109      H1124   1.086   1_455  S
C1110      C1111   1.411       .  A
C1110      C1114   1.443   1_455  S
C1111      C1112   1.403       .  A
C1112      C1113   1.396       .  A
C1112      H1125   1.087       .  S
C1113      C1115   1.445       .  S
C1114      N1118   1.157       .  T
C1115      N1119   1.157       .  T
C1116      N1121   1.157       .  T
C1117      N1120   1.158       .  T
C1126      C1127   1.410       .  A
C1126      C1131   1.401       .  A
C1126      C1140   1.444       .  S
C1127      C1132   1.485       .  S
C1127      C1128   1.401       .  A
C1128      C1129   1.400       .  A
C1128      H1147   1.085       .  S
C1129      C1130   1.414       .  A
C1129      C1141   1.441       .  S
C1130      C1131   1.406       .  A
C1131      H1146   1.084       .  S
C1132      C1133   1.402   1_655  A
C1132      C1137   1.408       .  A
C1133      C1134   1.403       .  A
C1133      H1148   1.084       .  S
C1134      C1135   1.418   1_455  A
C1134      C1138   1.444       .  S
C1135      C1136   1.410       .  A
C1136      C1137   1.399       .  A
C1136      H1149   1.083       .  S
C1137      C1139   1.445       .  S
C1138      N1142   1.157       .  T
C1139      N1143   1.157       .  T
C1140      N1145   1.157   1_655  T
C1141      N1144   1.156       .  T
C1150      C1151   1.410   1_455  A
C1150      C1155   1.398   1_455  A
C1150      C1164   1.444       .  S
C1151      C1156   1.481       .  S
C1151      C1152   1.403       .  A
C1152      C1153   1.398       .  A
C1152      H1171   1.084       .  S
C1153      C1154   1.411       .  A
C1153      C1165   1.444       .  S
C1154      C1155   1.404       .  A
C1155      H1170   1.084   1_655  S
C1156      C1157   1.402       .  A
C1156      C1161   1.412       .  A
C1157      C1158   1.398       .  A
C1157      H1172   1.085       .  S
C1158      C1159   1.411       .  A
C1158      C1162   1.445       .  S
C1159      C1160   1.401       .  A
C1160      C1161   1.399       .  A
C1160      H1173   1.085       .  S
C1161      C1163   1.444       .  S
C1162      N1166   1.157   1_655  T
C1163      N1167   1.157       .  T
C1164      N1169   1.157       .  T
C1165      N1168   1.157       .  T
C1174      C1175   1.406       .  A
C1174      C1179   1.399       .  A
C1174      C1188   1.444       .  S
C1175      C1180   1.476       .  S
C1175      C1176   1.398       .  A
C1176      C1177   1.397       .  A
C1176      H1195   1.085       .  S
C1177      C1178   1.420       .  A
C1177      C1189   1.445       .  S
C1178      C1179   1.409       .  A
C1179      H1194   1.084       .  S
C1180      C1181   1.400       .  A
C1180      C1185   1.406       .  A
C1181      C1182   1.402       .  A
C1181      H1196   1.085       .  S
C1182      C1183   1.418       .  A
C1182      C1186   1.444       .  S
C1183      C1184   1.407       .  A
C1184      C1185   1.395       .  A
C1184      H1197   1.084       .  S
C1185      C1187   1.445       .  S
C1186      N1190   1.157       .  T
C1187      N1191   1.157       .  T
C1188      N1193   1.157       .  T
C1189      N1192   1.157       .  T
C1198      C1199   1.411   1_556  A
C1198      C1203   1.399       .  A
C1198      C1212   1.444       .  S
C1199      C1204   1.484       .  S
C1199      C1200   1.403       .  A
C1200      C1201   1.399       .  A
C1200      H1219   1.085       .  S
C1201      C1202   1.413       .  A
C1201      C1213   1.444       .  S
C1202      C1203   1.405   1_554  A
C1203      H1218   1.085       .  S
C1204      C1205   1.404   1_554  A
C1204      C1209   1.412       .  A
C1205      C1206   1.399       .  A
C1205      H1220   1.084       .  S
C1206      C1207   1.409   1_556  A
C1206      C1210   1.443       .  S
C1207      C1208   1.402       .  A
C1208      C1209   1.399       .  A
C1208      H1221   1.084       .  S
C1209      C1211   1.444       .  S
C1210      N1214   1.157       .  T
C1211      N1215   1.157       .  T
C1212      N1217   1.157       .  T
C1213      N1216   1.157       .  T
C1222      C1223   1.409       .  A
C1222      C1227   1.399       .  A
C1222      C1236   1.445       .  S
C1223      C1228   1.486       .  S
C1223      C1224   1.402       .  A
C1224      C1225   1.400       .  A
C1224      H1243   1.085       .  S
C1225      C1226   1.420       .  A
C1225      C1237   1.444       .  S
C1226      C1227   1.409       .  A
C1227      H1242   1.085       .  S
C1228      C1229   1.405       .  A
C1228      C1233   1.414       .  A
C1229      C1230   1.399       .  A
C1229      H1244   1.083       .  S
C1230      C1231   1.407       .  A
C1230      C1234   1.444       .  S
C1231      C1232   1.400       .  A
C1232      C1233   1.399       .  A
C1232      H1245   1.083       .  S
C1233      C1235   1.444       .  S
C1234      N1238   1.157   1_554  T
C1235      N1239   1.157       .  T
C1236      N1241   1.157       .  T
C1237      N1240   1.157       .  T
C1246      C1247   1.409       .  A
C1246      C1251   1.400       .  A
C1246      C1260   1.444       .  S
C1247      C1252   1.482       .  S
C1247      C1248   1.401       .  A
C1248      C1249   1.399       .  A
C1248      H1267   1.084       .  S
C1249      C1250   1.413       .  A
C1249      C1261   1.442       .  S
C1250      C1251   1.405       .  A
C1251      H1266   1.084       .  S
C1252      C1253   1.403       .  A
C1252      C1257   1.410       .  A
C1253      C1254   1.400       .  A
C1253      H1268   1.085       .  S
C1254      C1255   1.413       .  A
C1254      C1258   1.444       .  S
C1255      C1256   1.403       .  A
C1256      C1257   1.398       .  A
C1256      H1269   1.085       .  S
C1257      C1259   1.444       .  S
C1258      N1262   1.157       .  T
C1259      N1263   1.157       .  T
C1260      N1265   1.157       .  T
C1261      N1264   1.156       .  T
C1270      C1271   1.408   1_565  A
C1270      C1275   1.400       .  A
C1270      C1284   1.444       .  S
C1271      C1276   1.482       .  S
C1271      C1272   1.400       .  A
C1272      C1273   1.398       .  A
C1272      H1291   1.085       .  S
C1273      C1274   1.421       .  A
C1273      C1285   1.445       .  S
C1274      C1275   1.409   1_545  A
C1275      H1290   1.084       .  S
C1276      C1277   1.402       .  A
C1276      C1281   1.411       .  A
C1277      C1278   1.399       .  A
C1277      H1292   1.085       .  S
C1278      C1279   1.413       .  A
C1278      C1282   1.444       .  S
C1279      C1280   1.403       .  A
C1280      C1281   1.398       .  A
C1280      H1293   1.085       .  S
C1281      C1283   1.444       .  S
C1282      N1286   1.157       .  T
C1283      N1287   1.157       .  T
C1284      N1289   1.157       .  T
C1285      N1288   1.158       .  T
C1294      C1295   1.410       .  A
C1294      C1299   1.398       .  A
C1294      C1308   1.444       .  S
C1295      C1300   1.480       .  S
C1295      C1296   1.402       .  A
C1296      C1297   1.400       .  A
C1296      H1315   1.085       .  S
C1297      C1298   1.411       .  A
C1297      C1309   1.444       .  S
C1298      C1299   1.403       .  A
C1299      H1314   1.085       .  S
C1300      C1301   1.402       .  A
C1300      C1305   1.410       .  A
C1301      C1302   1.400       .  A
C1301      H1316   1.085       .  S
C1302      C1303   1.411       .  A
C1302      C1306   1.444       .  S
C1303      C1304   1.403       .  A
C1304      C1305   1.397       .  A
C1304      H1317   1.085       .  S
C1305      C1307   1.444       .  S
C1306      N1310   1.157       .  T
C1307      N1311   1.157       .  T
C1308      N1313   1.157       .  T
C1309      N1312   1.157       .  T
C1318      C1319   1.406       .  A
C1318      C1323   1.401       .  A
C1318      C1332   1.444       .  S
C1319      C1324   1.484       .  S
C1319      C1320   1.401       .  A
C1320      C1321   1.403       .  A
C1320      H1339   1.085       .  S
C1321      C1322   1.419       .  A
C1321      C1333   1.444       .  S
C1322      C1323   1.411       .  A
C1323      H1338   1.085       .  S
C1324      C1325   1.399       .  A
C1324      C1329   1.406       .  A
C1325      C1326   1.403       .  A
C1325      H1340   1.085       .  S
C1326      C1327   1.424       .  A
C1326      C1330   1.444       .  S
C1327      C1328   1.411       .  A
C1328      C1329   1.401       .  A
C1328      H1341   1.084   1_565  S
C1329      C1331   1.444       .  S
C1330      N1334   1.158       .  T
C1331      N1335   1.157       .  T
C1332      N1337   1.157       .  T
C1333      N1336   1.157       .  T
C1342      C1343   1.407       .  A
C1342      C1347   1.400       .  A
C1342      C1356   1.444       .  S
C1343      C1348   1.481       .  S
C1343      C1344   1.402       .  A
C1344      C1345   1.402       .  A
C1344      H1363   1.084       .  S
C1345      C1346   1.414       .  A
C1345      C1357   1.444       .  S
C1346      C1347   1.406       .  A
C1347      H1362   1.084       .  S
C1348      C1349   1.399       .  A
C1348      C1353   1.407       .  A
C1349      C1350   1.399       .  A
C1349      H1364   1.085       .  S
C1350      C1351   1.418       .  A
C1350      C1354   1.444       .  S
C1351      C1352   1.410       .  A
C1352      C1353   1.403       .  A
C1352      H1365   1.084       .  S
C1353      C1355   1.444       .  S
C1354      N1358   1.157       .  T
C1355      N1359   1.157       .  T
C1356      N1361   1.157       .  T
C1357      N1360   1.157       .  T
C1366      C1367   1.408       .  A
C1366      C1371   1.397       .  A
C1366      C1380   1.445       .  S
C1367      C1372   1.483       .  S
C1367      C1368   1.401       .  A
C1368      C1369   1.402       .  A
C1368      H1387   1.086       .  S
C1369      C1370   1.420       .  A
C1369      C1381   1.444       .  S
C1370      C1371   1.409       .  A
C1371      H1386   1.085       .  S
C1372      C1373   1.403       .  A
C1372      C1377   1.410       .  A
C1373      C1374   1.399       .  A
C1373      H1388   1.084       .  S
C1374      C1375   1.412   1_565  A
C1374      C1378   1.444       .  S
C1375      C1376   1.404       .  A
C1376      C1377   1.400   1_545  A
C1376      H1389   1.084       .  S
C1377      C1379   1.444   1_565  S
C1378      N1382   1.157       .  T
C1379      N1383   1.157       .  T
C1380      N1385   1.157       .  T
C1381      N1384   1.157       .  T
C1390      C1391   1.406       .  A
C1390      C1395   1.397       .  A
C1390      C1404   1.444       .  S
C1391      C1396   1.477       .  S
C1391      C1392   1.398       .  A
C1392      C1393   1.400       .  A
C1392      H1411   1.085       .  S
C1393      C1394   1.421       .  A
C1393      C1405   1.445       .  S
C1394      C1395   1.408       .  A
C1395      H1410   1.084       .  S
C1396      C1397   1.401       .  A
C1396      C1401   1.409       .  A
C1397      C1398   1.399       .  A
C1397      H1412   1.084       .  S
C1398      C1399   1.413       .  A
C1398      C1402   1.444       .  S
C1399      C1400   1.403       .  A
C1400      C1401   1.398       .  A
C1400      H1413   1.084       .  S
C1401      C1403   1.444       .  S
C1402      N1406   1.157       .  T
C1403      N1407   1.157       .  T
C1404      N1409   1.157       .  T
C1405      N1408   1.158       .  T
C1414      C1415   1.410       .  A
C1414      C1419   1.400       .  A
C1414      C1428   1.444       .  S
C1415      C1420   1.487       .  S
C1415      C1416   1.404       .  A
C1416      C1417   1.402       .  A
C1416      H1435   1.084       .  S
C1417      C1418   1.414       .  A
C1417      C1429   1.444       .  S
C1418      C1419   1.404       .  A
C1419      H1434   1.084       .  S
C1420      C1421   1.401       .  A
C1420      C1425   1.409       .  A
C1421      C1422   1.401       .  A
C1421      H1436   1.086       .  S
C1422      C1423   1.420       .  A
C1422      C1426   1.444       .  S
C1423      C1424   1.409       .  A
C1424      C1425   1.402       .  A
C1424      H1437   1.085       .  S
C1425      C1427   1.444       .  S
C1426      N1430   1.158       .  T
C1427      N1431   1.157       .  T
C1428      N1433   1.157       .  T
C1429      N1432   1.157       .  T
C1438      C1439   1.410       .  A
C1438      C1443   1.400       .  A
C1438      C1452   1.443       .  S
C1439      C1444   1.485       .  S
C1439      C1440   1.404       .  A
C1440      C1441   1.401       .  A
C1440      H1459   1.084       .  S
C1441      C1442   1.411       .  A
C1441      C1453   1.444       .  S
C1442      C1443   1.403       .  A
C1443      H1458   1.084       .  S
C1444      C1445   1.402       .  A
C1444      C1449   1.408       .  A
C1445      C1446   1.403       .  A
C1445      H1460   1.085       .  S
C1446      C1447   1.418       .  A
C1446      C1450   1.444       .  S
C1447      C1448   1.408       .  A
C1448      C1449   1.401       .  A
C1448      H1461   1.085       .  S
C1449      C1451   1.444       .  S
C1450      N1454   1.157       .  T
C1451      N1455   1.157       .  T
C1452      N1457   1.157       .  T
C1453      N1456   1.157       .  T
C1462      C1463   1.408       .  A
C1462      C1467   1.398       .  A
C1462      C1476   1.444       .  S
C1463      C1468   1.479       .  S
C1463      C1464   1.401       .  A
C1464      C1465   1.401       .  A
C1464      H1483   1.085       .  S
C1465      C1466   1.415       .  A
C1465      C1477   1.444       .  S
C1466      C1467   1.405       .  A
C1467      H1482   1.085       .  S
C1468      C1469   1.400       .  A
C1468      C1473   1.407       .  A
C1469      C1470   1.401       .  A
C1469      H1484   1.086       .  S
C1470      C1471   1.417       .  A
C1470      C1474   1.444       .  S
C1471      C1472   1.407       .  A
C1472      C1473   1.399       .  A
C1472      H1485   1.085       .  S
C1473      C1475   1.444       .  S
C1474      N1478   1.157       .  T
C1475      N1479   1.157       .  T
C1476      N1481   1.157       .  T
C1477      N1480   1.157       .  T
C1486      C1487   1.411       .  A
C1486      C1491   1.397       .  A
C1486      C1500   1.445       .  S
C1487      C1492   1.486       .  S
C1487      C1488   1.405       .  A
C1488      C1489   1.402       .  A
C1488      H1507   1.085       .  S
C1489      C1490   1.413       .  A
C1489      C1501   1.444       .  S
C1490      C1491   1.405       .  A
C1491      H1506   1.086       .  S
C1492      C1493   1.403       .  A
C1492      C1497   1.411       .  A
C1493      C1494   1.398       .  A
C1493      H1508   1.085       .  S
C1494      C1495   1.414       .  A
C1494      C1498   1.445       .  S
C1495      C1496   1.405       .  A
C1496      C1497   1.401       .  A
C1496      H1509   1.084       .  S
C1497      C1499   1.444       .  S
C1498      N1502   1.157       .  T
C1499      N1503   1.157       .  T
C1500      N1505   1.157       .  T
C1501      N1504   1.157       .  T
C1510      C1511   1.412       .  A
C1510      C1515   1.403       .  A
C1510      C1524   1.444       .  S
C1511      C1516   1.491       .  S
C1511      C1512   1.404       .  A
C1512      C1513   1.403       .  A
C1512      H1531   1.084       .  S
C1513      C1514   1.411       .  A
C1513      C1525   1.443       .  S
C1514      C1515   1.405       .  A
C1515      H1530   1.084       .  S
C1516      C1517   1.402       .  A
C1516      C1521   1.410       .  A
C1517      C1518   1.403       .  A
C1517      H1532   1.085       .  S
C1518      C1519   1.419       .  A
C1518      C1522   1.445       .  S
C1519      C1520   1.408       .  A
C1520      C1521   1.403       .  A
C1520      H1533   1.085       .  S
C1521      C1523   1.444       .  S
C1522      N1526   1.157       .  T
C1523      N1527   1.157       .  T
C1524      N1529   1.157       .  T
C1525      N1528   1.157       .  T
C1534      C1535   1.410       .  A
C1534      C1539   1.398       .  A
C1534      C1548   1.444       .  S
C1535      C1540   1.484       .  S
C1535      C1536   1.402       .  A
C1536      C1537   1.401       .  A
C1536      H1555   1.086       .  S
C1537      C1538   1.417       .  A
C1537      C1549   1.445       .  S
C1538      C1539   1.404       .  A
C1539      H1554   1.086       .  S
C1540      C1541   1.400       .  A
C1540      C1545   1.408       .  A
C1541      C1542   1.399       .  A
C1541      H1556   1.086       .  S
C1542      C1543   1.421       .  A
C1542      C1546   1.445       .  S
C1543      C1544   1.409       .  A
C1544      C1545   1.401       .  A
C1544      H1557   1.085       .  S
C1545      C1547   1.444       .  S
C1546      N1550   1.158       .  T
C1547      N1551   1.157       .  T
C1548      N1553   1.157       .  T
C1549      N1552   1.157       .  T
C1558      C1559   1.409       .  A
C1558      C1563   1.396       .  A
C1558      C1572   1.444       .  S
C1559      C1564   1.482       .  S
C1559      C1560   1.404       .  A
C1560      C1561   1.401       .  A
C1560      H1579   1.085       .  S
C1561      C1562   1.412       .  A
C1561      C1573   1.444       .  S
C1562      C1563   1.403       .  A
C1563      H1578   1.086       .  S
C1564      C1565   1.399       .  A
C1564      C1569   1.410       .  A
C1565      C1566   1.399       .  A
C1565      H1580   1.084       .  S
C1566      C1567   1.420       .  A
C1566      C1570   1.445       .  S
C1567      C1568   1.406       .  A
C1568      C1569   1.399       .  A
C1568      H1581   1.084       .  S
C1569      C1571   1.444       .  S
C1570      N1574   1.157       .  T
C1571      N1575   1.157       .  T
C1572      N1577   1.157       .  T
C1573      N1576   1.157       .  T
C1582      C1583   1.410   1_546  A
C1582      C1587   1.399       .  A
C1582      C1596   1.444       .  S
C1583      C1588   1.482       .  S
C1583      C1584   1.402       .  A
C1584      C1585   1.399       .  A
C1584      H1603   1.086       .  S
C1585      C1586   1.412       .  A
C1585      C1597   1.444       .  S
C1586      C1587   1.405   1_564  A
C1587      H1602   1.086       .  S
C1588      C1589   1.402       .  A
C1588      C1593   1.411   1_565  A
C1589      C1590   1.398       .  A
C1589      H1604   1.083       .  S
C1590      C1591   1.410       .  A
C1590      C1594   1.443       .  S
C1591      C1592   1.404   1_565  A
C1592      C1593   1.401       .  A
C1592      H1605   1.083   1_554  S
C1593      C1595   1.444       .  S
C1594      N1598   1.157       .  T
C1595      N1599   1.157   1_554  T
C1596      N1601   1.157       .  T
C1597      N1600   1.157       .  T
C1606      C1607   1.411       .  A
C1606      C1611   1.401       .  A
C1606      C1620   1.444       .  S
C1607      C1612   1.483       .  S
C1607      C1608   1.403       .  A
C1608      C1609   1.399       .  A
C1608      H1627   1.084       .  S
C1609      C1610   1.411       .  A
C1609      C1621   1.444       .  S
C1610      C1611   1.403       .  A
C1611      H1626   1.084   1_565  S
C1612      C1613   1.400       .  A
C1612      C1617   1.410       .  A
C1613      C1614   1.399       .  A
C1613      H1628   1.084       .  S
C1614      C1615   1.419       .  A
C1614      C1618   1.445       .  S
C1615      C1616   1.407       .  A
C1616      C1617   1.401       .  A
C1616      H1629   1.084       .  S
C1617      C1619   1.444       .  S
C1618      N1622   1.157       .  T
C1619      N1623   1.157       .  T
C1620      N1625   1.157   1_565  T
C1621      N1624   1.157       .  T
C1630      C1631   1.408       .  A
C1630      C1635   1.399       .  A
C1630      C1644   1.444   1_556  S
C1631      C1636   1.479       .  S
C1631      C1632   1.403   1_655  A
C1632      C1633   1.399       .  A
C1632      H1651   1.084       .  S
C1633      C1634   1.410   1_455  A
C1633      C1645   1.444       .  S
C1634      C1635   1.405       .  A
C1635      H1650   1.084       .  S
C1636      C1637   1.401       .  A
C1636      C1641   1.409   1_556  A
C1637      C1638   1.399       .  A
C1637      H1652   1.084       .  S
C1638      C1639   1.414       .  A
C1638      C1642   1.444       .  S
C1639      C1640   1.405   1_556  A
C1640      C1641   1.398       .  A
C1640      H1653   1.084   1_655  S
C1641      C1643   1.444   1_655  S
C1642      N1646   1.157       .  T
C1643      N1647   1.157       .  T
C1644      N1649   1.157       .  T
C1645      N1648   1.157       .  T
C1654      C1655   1.411       .  A
C1654      C1659   1.398       .  A
C1654      C1668   1.444       .  S
C1655      C1660   1.486       .  S
C1655      C1656   1.405       .  A
C1656      C1657   1.402       .  A
C1656      H1675   1.084       .  S
C1657      C1658   1.411       .  A
C1657      C1669   1.444   1_455  S
C1658      C1659   1.403       .  A
C1659      H1674   1.085       .  S
C1660      C1661   1.400       .  A
C1660      C1665   1.411       .  A
C1661      C1662   1.400       .  A
C1661      H1676   1.085       .  S
C1662      C1663   1.418       .  A
C1662      C1666   1.442       .  S
C1663      C1664   1.408       .  A
C1664      C1665   1.401       .  A
C1664      H1677   1.084       .  S
C1665      C1667   1.444       .  S
C1666      N1670   1.157       .  T
C1667      N1671   1.157       .  T
C1668      N1673   1.157       .  T
C1669      N1672   1.157       .  T
C1678      C1679   1.411       .  A
C1678      C1683   1.403       .  A
C1678      C1692   1.444       .  S
C1679      C1684   1.486       .  S
C1679      C1680   1.403       .  A
C1680      C1681   1.399       .  A
C1680      H1699   1.084       .  S
C1681      C1682   1.412       .  A
C1681      C1693   1.444       .  S
C1682      C1683   1.406       .  A
C1683      H1698   1.084       .  S
C1684      C1685   1.405       .  A
C1684      C1689   1.411       .  A
C1685      C1686   1.403       .  A
C1685      H1700   1.084       .  S
C1686      C1687   1.412       .  A
C1686      C1690   1.444       .  S
C1687      C1688   1.403       .  A
C1688      C1689   1.398       .  A
C1688      H1701   1.085       .  S
C1689      C1691   1.444       .  S
C1690      N1694   1.157       .  T
C1691      N1695   1.157       .  T
C1692      N1697   1.157       .  T
C1693      N1696   1.157       .  T
C1702      C1703   1.413       .  A
C1702      C1707   1.403       .  A
C1702      C1716   1.444       .  S
C1703      C1708   1.489       .  S
C1703      C1704   1.403       .  A
C1704      C1705   1.400       .  A
C1704      H1723   1.084       .  S
C1705      C1706   1.412       .  A
C1705      C1717   1.444       .  S
C1706      C1707   1.405       .  A
C1707      H1722   1.083       .  S
C1708      C1709   1.405   1_565  A
C1708      C1713   1.412       .  A
C1709      C1710   1.403       .  A
C1709      H1724   1.085       .  S
C1710      C1711   1.414   1_545  A
C1710      C1714   1.444       .  S
C1711      C1712   1.405       .  A
C1712      C1713   1.400       .  A
C1712      H1725   1.083       .  S
C1713      C1715   1.444       .  S
C1714      N1718   1.157       .  T
C1715      N1719   1.157       .  T
C1716      N1721   1.157       .  T
C1717      N1720   1.157       .  T
C1726      C1727   1.410       .  A
C1726      C1731   1.398       .  A
C1726      C1740   1.444       .  S
C1727      C1732   1.483       .  S
C1727      C1728   1.404       .  A
C1728      C1729   1.400       .  A
C1728      H1747   1.085       .  S
C1729      C1730   1.413       .  A
C1729      C1741   1.444       .  S
C1730      C1731   1.404       .  A
C1731      H1746   1.086       .  S
C1732      C1733   1.403       .  A
C1732      C1737   1.411       .  A
C1733      C1734   1.398       .  A
C1733      H1748   1.085       .  S
C1734      C1735   1.410       .  A
C1734      C1738   1.443       .  S
C1735      C1736   1.402       .  A
C1736      C1737   1.400       .  A
C1736      H1749   1.085       .  S
C1737      C1739   1.444       .  S
C1738      N1742   1.157       .  T
C1739      N1743   1.157       .  T
C1740      N1745   1.157       .  T
C1741      N1744   1.157       .  T
C1750      C1751   1.408       .  A
C1750      C1755   1.401       .  A
C1750      C1764   1.443   1_455  S
C1751      C1756   1.481       .  S
C1751      C1752   1.401       .  A
C1752      C1753   1.399       .  A
C1752      H1771   1.084       .  S
C1753      C1754   1.415       .  A
C1753      C1765   1.444       .  S
C1754      C1755   1.406       .  A
C1755      H1770   1.084   1_455  S
C1756      C1757   1.402       .  A
C1756      C1761   1.407       .  A
C1757      C1758   1.402       .  A
C1757      H1772   1.085       .  S
C1758      C1759   1.417       .  A
C1758      C1762   1.444       .  S
C1759      C1760   1.408       .  A
C1760      C1761   1.398       .  A
C1760      H1773   1.085       .  S
C1761      C1763   1.444       .  S
C1762      N1766   1.157       .  T
C1763      N1767   1.157       .  T
C1764      N1769   1.157       .  T
C1765      N1768   1.157       .  T
C1774      C1775   1.407       .  A
C1774      C1779   1.399       .  A
C1774      C1788   1.444       .  S
C1775      C1780   1.483       .  S
C1775      C1776   1.401       .  A
C1776      C1777   1.401       .  A
C1776      H1795   1.086       .  S
C1777      C1778   1.420       .  A
C1777      C1789   1.444       .  S
C1778      C1779   1.410       .  A
C1779      H1794   1.085       .  S
C1780      C1781   1.403       .  A
C1780      C1785   1.409       .  A
C1781      C1782   1.401       .  A
C1781      H1796   1.085       .  S
C1782      C1783   1.415       .  A
C1782      C1786   1.444   1_545  S
C1783      C1784   1.406       .  A
C1784      C1785   1.399       .  A
C1784      H1797   1.084       .  S
C1785      C1787   1.444       .  S
C1786      N1790   1.157       .  T
C1787      N1791   1.157       .  T
C1788      N1793   1.157       .  T
C1789      N1792   1.158       .  T
C1798      C1799   1.412       .  A
C1798      C1803   1.399       .  A
C1798      C1812   1.444       .  S
C1799      C1804   1.481       .  S
C1799      C1800   1.402       .  A
C1800      C1801   1.399       .  A
C1800      H1819   1.084       .  S
C1801      C1802   1.411       .  A
C1801      C1813   1.444   1_655  S
C1802      C1803   1.400       .  A
C1803      H1818   1.085       .  S
C1804      C1805   1.400       .  A
C1804      C1809   1.409       .  A
C1805      C1806   1.398       .  A
C1805      H1820   1.084       .  S
C1806      C1807   1.418       .  A
C1806      C1810   1.445       .  S
C1807      C1808   1.407       .  A
C1808      C1809   1.400       .  A
C1808      H1821   1.083       .  S
C1809      C1811   1.444       .  S
C1810      N1814   1.157       .  T
C1811      N1815   1.157       .  T
C1812      N1817   1.157       .  T
C1813      N1816   1.157       .  T
C1822      C1823   1.410       .  A
C1822      C1827   1.401       .  A
C1822      C1836   1.444       .  S
C1823      C1828   1.488       .  S
C1823      C1824   1.402       .  A
C1824      C1825   1.399       .  A
C1824      H1843   1.086       .  S
C1825      C1826   1.418       .  A
C1825      C1837   1.445       .  S
C1826      C1827   1.408       .  A
C1827      H1842   1.086       .  S
C1828      C1829   1.404       .  A
C1828      C1833   1.414       .  A
C1829      C1830   1.400   1_545  A
C1829      H1844   1.085       .  S
C1830      C1831   1.411   1_565  A
C1830      C1834   1.444       .  S
C1831      C1832   1.402       .  A
C1832      C1833   1.401       .  A
C1832      H1845   1.085       .  S
C1833      C1835   1.444       .  S
C1834      N1838   1.157       .  T
C1835      N1839   1.157       .  T
C1836      N1841   1.157       .  T
C1837      N1840   1.157       .  T
C1846      C1847   1.409       .  A
C1846      C1851   1.400       .  A
C1846      C1860   1.444       .  S
C1847      C1852   1.483       .  S
C1847      C1848   1.399       .  A
C1848      C1849   1.399       .  A
C1848      H1867   1.085       .  S
C1849      C1850   1.421       .  A
C1849      C1861   1.444       .  S
C1850      C1851   1.409       .  A
C1851      H1866   1.084       .  S
C1852      C1853   1.401       .  A
C1852      C1857   1.411       .  A
C1853      C1854   1.398   1_655  A
C1853      H1868   1.086   1_655  S
C1854      C1855   1.412       .  A
C1854      C1858   1.443       .  S
C1855      C1856   1.404   1_455  A
C1856      C1857   1.401       .  A
C1856      H1869   1.085       .  S
C1857      C1859   1.444       .  S
C1858      N1862   1.157       .  T
C1859      N1863   1.157       .  T
C1860      N1865   1.157       .  T
C1861      N1864   1.157       .  T
C1870      C1871   1.409       .  A
C1870      C1875   1.398       .  A
C1870      C1884   1.444       .  S
C1871      C1876   1.486       .  S
C1871      C1872   1.403       .  A
C1872      C1873   1.401       .  A
C1872      H1891   1.085       .  S
C1873      C1874   1.418       .  A
C1873      C1885   1.444       .  S
C1874      C1875   1.409       .  A
C1875      H1890   1.085       .  S
C1876      C1877   1.403       .  A
C1876      C1881   1.411       .  A
C1877      C1878   1.400       .  A
C1877      H1892   1.084       .  S
C1878      C1879   1.413       .  A
C1878      C1882   1.444       .  S
C1879      C1880   1.404       .  A
C1880      C1881   1.399       .  A
C1880      H1893   1.085       .  S
C1881      C1883   1.444       .  S
C1882      N1886   1.157       .  T
C1883      N1887   1.157       .  T
C1884      N1889   1.157       .  T
C1885      N1888   1.157       .  T
C1894      C1895   1.406       .  A
C1894      C1899   1.399       .  A
C1894      C1908   1.444       .  S
C1895      C1900   1.481       .  S
C1895      C1896   1.399       .  A
C1896      C1897   1.402       .  A
C1896      H1915   1.085       .  S
C1897      C1898   1.422       .  A
C1897      C1909   1.445       .  S
C1898      C1899   1.409       .  A
C1899      H1914   1.084       .  S
C1900      C1901   1.400       .  A
C1900      C1905   1.407       .  A
C1901      C1902   1.401       .  A
C1901      H1916   1.085       .  S
C1902      C1903   1.420       .  A
C1902      C1906   1.444   1_545  S
C1903      C1904   1.409       .  A
C1904      C1905   1.400       .  A
C1904      H1917   1.084   1_655  S
C1905      C1907   1.444       .  S
C1906      N1910   1.157       .  T
C1907      N1911   1.157       .  T
C1908      N1913   1.157       .  T
C1909      N1912   1.158       .  T
