geometry optimzed in LAMMPS
_audit_creation_date              2020-12-01 
_audit_creation_method            'lammps2cif' 
_symmetry_space_group_name_H-M    'P1' 
_symmetry_Int_Tables_number       1 
_symmetry_cell_setting            triclinic 
loop_ 
_symmetry_equiv_pos_as_xyz 
  x,y,z 
_cell_length_a                    29.35193202 
_cell_length_b                    29.433472855303393 
_cell_length_c                    29.25870086166444 
_cell_angle_alpha                 89.93554052728499 
_cell_angle_beta                  89.9661789478016 
_cell_angle_gamma                 89.99392763648186 
loop_ 
_atom_site_label 
_atom_site_type_symbol 
_atom_site_fract_x 
_atom_site_fract_y 
_atom_site_fract_z 
_atom_site_charge 
C1          C  0.43346488  0.60084623  0.86600416     0.43700
N2          N  0.44441137  0.55846353  0.92472528     0.02600
C3          C  0.63235803  0.55029331  0.06503417    -0.05300
H4          H  0.66412124  0.52899277  0.88547787     0.08000
C5          C  0.57211997  0.38740758  0.89556427    -0.05700
Co6        Co  0.52737766  0.58554206  0.97698230     0.74200
N7          N  0.60774598  0.54661887  0.92914636    -0.24900
Co8        Co  0.60443241  0.49642820  0.97893683     0.74100
C9          C  0.61477514  0.40122381  0.87387057     0.43800
N10         N  0.46590158  0.42401693  0.92741482     0.02200
N11         N  0.60056819  0.44594899  0.92967119     0.02300
N12         N  0.58149686  0.60798950  0.06380405    -0.45700
H13         H  0.49792085  0.64309383  0.88239412     0.08000
N14         N  0.57847750  0.58056578  0.92886238     0.02600
N15         N  0.59920922  0.44643935  0.02880113     0.02300
C16         C  0.61327399  0.40173331  0.08497169     0.43900
N17         N  0.43658022  0.45793553  0.92643247    -0.24300
C18         C  0.46998825  0.61795478  0.05911664    -0.05200
N19         N  0.41670385  0.56516326  0.88971015    -0.45400
N20         N  0.62891347  0.43817045  0.06174933    -0.45600
C21         C  0.42770438  0.60347951  0.08089391     0.43700
N22         N  0.57614518  0.58054075  0.02838615     0.02500
N23         N  0.43483660  0.45974073  0.02578510    -0.24300
N24         N  0.47840362  0.58767719  0.92568282    -0.24800
N25         N  0.46420844  0.42586875  0.02718568     0.02200
H26         H  0.37990142  0.48021723  0.06986745     0.08100
H27         H  0.54787677  0.36015899  0.07065189     0.08100
N28         N  0.60536949  0.54658362  0.02853684    -0.24900
N29         N  0.56639542  0.41692172  0.92971356    -0.24500
N30         N  0.44165060  0.55973657  0.02431040     0.02600
C31         C  0.62156221  0.59360527  0.87160546     0.43900
C32         C  0.40820082  0.45201096  0.89115771    -0.05700
N33         N  0.56497874  0.41750359  0.02867851    -0.24500
H34         H  0.54901935  0.36010207  0.88755327     0.08100
N35         N  0.58548804  0.60941373  0.89504650    -0.45700
H36         H  0.38062211  0.47447366  0.88181388     0.08100
C37         C  0.42225655  0.41614894  0.08619094     0.43800
C38         C  0.47453072  0.61592305  0.89000963    -0.05200
Co39       Co  0.43814090  0.50902517  0.97520215     0.73800
N40         N  0.45935689  0.39447145  0.89397667    -0.45400
C41         C  0.61630687  0.59099905  0.08877542     0.44100
N42         N  0.41188255  0.56741257  0.05734881    -0.45400
Co43       Co  0.51514672  0.41997928  0.97829514     0.73900
C44         C  0.57063051  0.38794750  0.06302709    -0.05700
C45         C  0.63663387  0.55186216  0.89409238    -0.05300
N46         N  0.47585680  0.58866240  0.02479454    -0.24800
N47         N  0.63041282  0.43777682  0.89682287    -0.45600
H48         H  0.65915885  0.52667417  0.07326102     0.08100
C49         C  0.40670193  0.45642473  0.06160830    -0.05700
Cl50       Cl  0.52128402  0.50270899  0.97730382    -0.48700
C51         C  0.42346169  0.40991548  0.86977128     0.43800
H52         H  0.49231496  0.64603390  0.06689739     0.08000
N53         N  0.45800234  0.39902599  0.06289753    -0.45400
C54         C  0.41759022  0.89766450  0.56674670     0.43700
N55         N  0.45986939  0.95603619  0.55505138     0.02600
C56         C  0.47170863  0.08778039  0.36072711    -0.05300
H57         H  0.49272604  0.90791611  0.33577118     0.08000
C58         C  0.63275355  0.91841235  0.42872656    -0.05700
Co59       Co  0.43471596  0.00429794  0.46899354     0.74200
N60         N  0.47431998  0.95281626  0.39088323    -0.24900
Co61       Co  0.52503591  0.00226702  0.39269342     0.74100
C62         C  0.61848749  0.89565678  0.38679452     0.43800
N63         N  0.59479722  0.95469880  0.53424845     0.02200
N64         N  0.57491844  0.95265751  0.39873515     0.02300
N65         N  0.41317020  0.08776685  0.41097847    -0.45700
H66         H  0.37564441  0.91181668  0.50161448     0.08000
N67         N  0.43971060  0.95357488  0.41966499     0.02600
N68         N  0.57583467  0.05151906  0.39694209     0.02300
C69         C  0.62133728  0.10650126  0.38246142     0.43900
N70         N  0.56055366  0.95560084  0.56341021    -0.24300
C71         C  0.40559893  0.09177625  0.52114151    -0.05200
N72         N  0.45287012  0.92186010  0.58369955    -0.45400
N73         N  0.58447137  0.08397454  0.36679269    -0.45600
C74         C  0.42168165  0.11631155  0.56137674     0.43700
N75         N  0.44060902  0.05278372  0.41772138     0.02500
N76         N  0.56203391  0.05420349  0.56197708    -0.24300
N77         N  0.43119968  0.95575946  0.52037663    -0.24800
N78         N  0.59609948  0.05374028  0.53253930     0.02200
H79         H  0.54582317  0.09737324  0.61922845     0.08100
H80         H  0.66281454  0.09317765  0.44801757     0.08100
N81         N  0.47512496  0.05208259  0.38891061    -0.24900
N82         N  0.60369275  0.95310485  0.43332142    -0.24500
N83         N  0.46151300  0.05588714  0.55282013     0.02600
C84         C  0.42778501  0.89479000  0.37822851     0.43900
C85         C  0.56521470  0.92117941  0.59293685    -0.05700
N86         N  0.60477445  0.05155225  0.43142229    -0.24500
H87         H  0.66081048  0.91096819  0.45147340     0.08100
N88         N  0.41088095  0.91959751  0.41311392    -0.45700
H89         H  0.54241802  0.91430147  0.62112670     0.08100
C90         C  0.61048640  0.11016261  0.57626343     0.43800
C91         C  0.40294143  0.92032553  0.52487918    -0.05200
Co92       Co  0.51075919  0.00545739  0.55955852     0.73800
N93         N  0.62323290  0.92076752  0.54203925    -0.45400
C94         C  0.43051112  0.11149679  0.37554470     0.44100
N95         N  0.45637250  0.09201942  0.57928117    -0.45400
Co96       Co  0.60086185  0.00329674  0.48304579     0.73900
C97         C  0.63492418  0.08511071  0.42531390    -0.05700
C98         C  0.46977009  0.91686653  0.36324435    -0.05300
N99         N  0.43248229  0.05512596  0.51843695    -0.24800
N100        N  0.58261374  0.91888709  0.36995275    -0.45600
H101        H  0.49595624  0.09635392  0.33432187     0.08100
C102        C  0.56818074  0.08868004  0.59117626    -0.05700
Cl103      Cl  0.51787330  0.00383320  0.47606662    -0.48700
C104        C  0.60680639  0.89786153  0.57845792     0.43800
H105        H  0.37923639  0.10064996  0.49700757     0.08000
N106        N  0.62586659  0.08671349  0.53980694    -0.45400
C107        C  0.90883673  0.60243321  0.56733604     0.43700
N108        N  0.96698524  0.55982565  0.55648949     0.02600
C109        C  0.10589428  0.55401015  0.36623431    -0.05300
H110        H  0.92632398  0.52802929  0.33863258     0.08000
C111        C  0.94031916  0.38657616  0.42664473    -0.05700
Co112      Co  0.01946531  0.58718694  0.47361191     0.74200
N113        N  0.97133858  0.54735622  0.39339977    -0.24900
Co114      Co  0.02204913  0.49786415  0.39669620     0.74100
C115        C  0.91916102  0.40055239  0.38370376     0.43800
N116        N  0.96930579  0.42553171  0.53458065     0.02200
N117        N  0.97339500  0.44656208  0.39978760     0.02300
N118        N  0.10421208  0.61212543  0.41680293    -0.45700
H119        H  0.92626594  0.64614656  0.50403782     0.08000
N120        N  0.97110317  0.58161767  0.42239873     0.02600
N121        N  0.07292110  0.44895612  0.40348202     0.02300
C122        C  0.13403629  0.40998503  0.39481805     0.43900
N123        N  0.96827802  0.45947940  0.56395889    -0.24300
C124        C  0.09913852  0.62153731  0.53386542    -0.05200
N125        N  0.93204528  0.56655578  0.58419643    -0.45400
N126        N  0.10903960  0.44412493  0.37690616    -0.45600
C127        C  0.11854069  0.60861739  0.57799689     0.43700
N128        N  0.07066575  0.58287144  0.42428640     0.02500
N129        N  0.06718186  0.46081929  0.56782734    -0.24300
N130        N  0.96830573  0.58927216  0.52254750    -0.24800
N131        N  0.06828493  0.42655830  0.53883255     0.02200
H132        H  0.10828340  0.47837197  0.62627002     0.08100
H133        H  0.11816895  0.36655134  0.45867129     0.08100
N134        N  0.07091722  0.54880576  0.39506131    -0.24900
N135        N  0.97342980  0.41709483  0.43373789    -0.24500
N136        N  0.06573690  0.56164815  0.56049297     0.02600
C137        C  0.91151009  0.59220575  0.38165245     0.43900
C138        C  0.93261168  0.45401299  0.59183473    -0.05700
N139        N  0.07258427  0.41994395  0.43785716    -0.24500
H140        H  0.93231043  0.35833171  0.44884243     0.08100
N141        N  0.93603516  0.60914911  0.41655540    -0.45700
H142        H  0.92310468  0.47663662  0.61928431     0.08100
C143        C  0.12384364  0.41382134  0.58439509     0.43800
C144        C  0.93312270  0.61787411  0.52660531    -0.05200
Co145      Co  0.01707144  0.51047818  0.56328168     0.73800
N146        N  0.93558175  0.39632904  0.54068840    -0.45400
C147        C  0.12810859  0.59581131  0.38083680     0.44100
N148        N  0.09628657  0.57109295  0.59228652    -0.45400
Co149      Co  0.02088060  0.42113498  0.48633195     0.73900
C150        C  0.10967612  0.39355302  0.43515683    -0.05700
C151        C  0.93499587  0.55119077  0.36589759    -0.05300
N152        N  0.06668490  0.59064437  0.52611604    -0.24800
N153        N  0.94141042  0.43798770  0.36908148    -0.45600
H154        H  0.11386092  0.53170843  0.33801597     0.08100
C155        C  0.10116092  0.45586005  0.59800334    -0.05700
Cl156      Cl  0.01996588  0.50416859  0.48000066    -0.48700
C157        C  0.91109360  0.41220109  0.57625130     0.43800
H158        H  0.10706429  0.64972619  0.51159734     0.08000
N159        N  0.10158844  0.39758089  0.54759110    -0.45400
C160        C  0.76249489  0.31879260  0.29627179     0.81400
N161        N  0.74315731  0.33752394  0.25845091    -0.76900
C162        C  0.70513204  0.31900412  0.23960749     0.83900
N163        N  0.68649746  0.28163494  0.25928946    -0.76800
C164        C  0.70526282  0.26245339  0.29691132     0.84000
N165        N  0.74331339  0.28122300  0.31526167    -0.78500
C166        C  0.74736933  0.67372329  0.30981871     0.81400
N167        N  0.72955508  0.71246996  0.32722013    -0.76900
C168        C  0.69227552  0.73189726  0.30792196     0.83900
N169        N  0.67280774  0.71225188  0.27073331    -0.76800
C170        C  0.69028411  0.67338140  0.25291143     0.84000
N171        N  0.72758413  0.65464243  0.27272650    -0.78500
C172        C  0.69920645  0.32227364  0.71397092     0.81400
N173        N  0.68073542  0.28477511  0.69454039    -0.76900
C174        C  0.69864875  0.26658041  0.65596223     0.83900
N175        N  0.73559525  0.28652689  0.63641855    -0.76800
C176        C  0.75453249  0.32411345  0.65553118     0.84000
N177        N  0.73609381  0.34166514  0.69416999    -0.78500
C178        C  0.34182946  0.73748562  0.29747977     0.81400
N179        N  0.30345782  0.71894084  0.31560121    -0.76900
C180        C  0.28433209  0.68146865  0.29640915     0.83900
N181        N  0.30380410  0.66277874  0.25872609    -0.76800
C182        C  0.34197886  0.68116102  0.24020744     0.84000
N183        N  0.36075421  0.71839509  0.25986952    -0.78500
C184        C  0.34279127  0.73565305  0.64959061     0.81400
N185        N  0.30206799  0.71935760  0.63529555    -0.76900
C186        C  0.28216467  0.68353950  0.65674231     0.83900
N187        N  0.30387241  0.66377612  0.69266628    -0.76800
C188        C  0.34491500  0.67950171  0.70718488     0.84000
N189        N  0.36393466  0.71556815  0.68545063    -0.78500
C190        C  0.34758731  0.32982836  0.70675396     0.81400
N191        N  0.30903852  0.34883803  0.68990665    -0.76900
C192        C  0.29016626  0.33361376  0.65066890     0.83900
N193        N  0.31021233  0.29893496  0.62781250    -0.76800
C194        C  0.34915754  0.27963710  0.64377050     0.84000
N195        N  0.36769448  0.29522957  0.68342623    -0.78500
C196        C  0.69430336  0.68018124  0.71077721     0.81400
N197        N  0.67491538  0.71793526  0.69273294    -0.76900
C198        C  0.69139116  0.73667159  0.65368820     0.83900
N199        N  0.72790662  0.71727766  0.63286510    -0.76800
C200        C  0.74771198  0.67948199  0.65061275     0.84000
N201        N  0.73051418  0.66118578  0.68943410    -0.78500
C202        C  0.35501852  0.28138673  0.30966193     0.81400
N203        N  0.31844848  0.30056340  0.33071109    -0.76900
C204        C  0.29961789  0.33948634  0.31430473     0.83900
N205        N  0.31758618  0.35900513  0.27637685    -0.76800
C206        C  0.35390893  0.34030743  0.25487018     0.84000
N207        N  0.37238359  0.30156223  0.27174195    -0.78500
C208        C  0.24032170  0.40106869  0.63795643     0.24800
C209        C  0.24749709  0.35400988  0.63398295    -0.23300
C210        C  0.21307522  0.32661803  0.61523153     0.19700
C211        C  0.17231989  0.34607280  0.60025459     0.24700
C212        C  0.16548784  0.39326305  0.60341797    -0.23200
C213        C  0.19966738  0.42055369  0.62280354     0.19600
F214        F  0.19470471  0.46631161  0.62543483    -0.13200
F215        F  0.27336866  0.42849198  0.65506061    -0.15600
F216        F  0.13912533  0.31860138  0.58352256    -0.15600
F217        F  0.21831691  0.28086126  0.61258885    -0.13200
C218        C  0.17102823  0.67426178  0.59142064     0.24800
C219        C  0.15708804  0.62987587  0.60224733    -0.23300
C220        C  0.18155742  0.60521912  0.63529194     0.19700
C221        C  0.22141770  0.62303622  0.65414447     0.24700
C222        C  0.23753350  0.66612845  0.64053203    -0.23200
C223        C  0.21086855  0.69209717  0.61008142     0.19600
F224        F  0.22313855  0.73493868  0.59799055    -0.13200
F225        F  0.14603249  0.70093281  0.56308885    -0.15600
F226        F  0.24485383  0.59708591  0.68442245    -0.15600
F227        F  0.16796611  0.56304593  0.64831169    -0.13200
C228        C  0.20082974  0.59162841  0.33618895     0.24800
C229        C  0.16827167  0.61778438  0.35974975    -0.23300
C230        C  0.17409683  0.66513328  0.36224350     0.19700
C231        C  0.21154186  0.68597418  0.34128583     0.24700
C232        C  0.24400754  0.65981574  0.31760520    -0.23200
C233        C  0.23817317  0.61241290  0.31524155     0.19600
F234        F  0.26942488  0.58578115  0.29392731    -0.13200
F235        F  0.19757622  0.54565105  0.33459300    -0.15600
F236        F  0.21532705  0.73190473  0.34317261    -0.15600
F237        F  0.14290752  0.69149360  0.38392954    -0.13200
C238        C  0.22878238  0.38706757  0.31045840     0.24800
C239        C  0.25855905  0.35937268  0.33600719    -0.23300
C240        C  0.24818219  0.35052500  0.38214630     0.19700
C241        C  0.20818668  0.36753449  0.40171517     0.24700
C242        C  0.17759696  0.39359579  0.37547540    -0.23200
C243        C  0.18893491  0.40400826  0.32997431     0.19600
F244        F  0.16090907  0.42976870  0.30364282    -0.13200
F245        F  0.23719085  0.39685733  0.26593402    -0.15600
F246        F  0.20027099  0.35930893  0.44665306    -0.15600
F247        F  0.27715340  0.32619716  0.40878829    -0.13200
C248        C  0.79934557  0.66897437  0.58294593     0.24800
C249        C  0.78817116  0.65878240  0.62861984    -0.23300
C250        C  0.81642865  0.62871680  0.65325915     0.19700
C251        C  0.85539295  0.61044634  0.63319783     0.24700
C252        C  0.86696858  0.62134695  0.58787673    -0.23200
C253        C  0.83809744  0.65021664  0.56272255     0.19600
F254        F  0.84642394  0.65967338  0.51811949    -0.13200
F255        F  0.77244120  0.69650465  0.55727659    -0.15600
F256        F  0.88226091  0.58276420  0.65877454    -0.15600
F257        F  0.80730468  0.61754864  0.69732418    -0.13200
C258        C  0.80396996  0.34214685  0.58784819     0.24800
C259        C  0.79499829  0.34591390  0.63497940    -0.23300
C260        C  0.82493619  0.37138481  0.66251033     0.19700
C261        C  0.86271761  0.39276844  0.64335863     0.24700
C262        C  0.87143989  0.38919755  0.59633700    -0.23200
C263        C  0.84204106  0.36344554  0.56875294     0.19600
F264        F  0.84936820  0.36000148  0.52304843    -0.13200
F265        F  0.77520976  0.31913570  0.55989261    -0.15600
F266        F  0.89156467  0.41569351  0.67130734    -0.15600
F267        F  0.81841243  0.37491368  0.70832522    -0.13200
C268        C  0.87153609  0.33250143  0.36462957     0.24800
C269        C  0.88021917  0.37922789  0.35995526    -0.23300
C270        C  0.85098791  0.40564332  0.33273171     0.19700
C271        C  0.81288770  0.38612657  0.31186728     0.24700
C272        C  0.80359056  0.33946017  0.31721250    -0.23200
C273        C  0.83370954  0.31281443  0.34347003     0.19600
F274        F  0.82718782  0.26738527  0.34809672    -0.13200
F275        F  0.90032262  0.30539779  0.38860900    -0.15600
F276        F  0.78432096  0.41342044  0.28781766    -0.15600
F277        F  0.85842821  0.45080432  0.32741621    -0.13200
C278        C  0.83670275  0.58619338  0.34084332     0.24800
C279        C  0.86856046  0.61243995  0.36496715    -0.23300
C280        C  0.85882867  0.65849446  0.37353583     0.19700
C281        C  0.81926055  0.67843092  0.35615307     0.24700
C282        C  0.78815072  0.65247878  0.33051430    -0.23200
C283        C  0.79686442  0.60587447  0.32404586     0.19600
F284        F  0.76640076  0.57882815  0.30223049    -0.13200
F285        F  0.84320472  0.54108683  0.33444790    -0.15600
F286        F  0.81230265  0.72347149  0.36334426    -0.15600
F287        F  0.88815365  0.68475561  0.39779170    -0.13200
C288        C  0.63115012  0.15750523  0.64400222     0.24800
C289        C  0.63395322  0.14942773  0.59679227    -0.23300
C290        C  0.65958728  0.17910757  0.56926767     0.19700
C291        C  0.68085821  0.21709352  0.58838947     0.24700
C292        C  0.67758050  0.22562729  0.63561008    -0.23200
C293        C  0.65298060  0.19499416  0.66327158     0.19600
F294        F  0.65080225  0.20057656  0.70927377    -0.13200
F295        F  0.60853994  0.12833768  0.67192760    -0.15600
F296        F  0.70332788  0.24623880  0.56033492    -0.15600
F297        F  0.66289503  0.17218972  0.52350897    -0.13200
C298        C  0.43266037  0.18821310  0.60604611     0.24800
C299        C  0.40427541  0.15962275  0.58008395    -0.23300
C300        C  0.35877368  0.17246265  0.57272876     0.19700
C301        C  0.34147663  0.21212742  0.59213442     0.24700
C302        C  0.36917152  0.23994188  0.61975720    -0.23200
C303        C  0.41535353  0.22812382  0.62550884     0.19600
F304        F  0.44398632  0.25536769  0.64949165    -0.13200
F305        F  0.47732055  0.17782925  0.61225352    -0.15600
F306        F  0.29683574  0.22202134  0.58524369    -0.15600
F307        F  0.32998985  0.14556074  0.54861388    -0.13200
C308        C  0.36313159  0.22108009  0.37027513     0.24800
C309        C  0.37499992  0.23819244  0.32685806    -0.23300
C310        C  0.40592989  0.21315275  0.29979725     0.19700
C311        C  0.42415823  0.17224505  0.31560346     0.24700
C312        C  0.41181456  0.15506173  0.35870520    -0.23200
C313        C  0.38114912  0.17999082  0.38586218     0.19600
F314        F  0.36896391  0.16512597  0.42808287    -0.13200
F315        F  0.33447502  0.24419309  0.39827945    -0.15600
F316        F  0.45294239  0.14907222  0.28781809    -0.15600
F317        F  0.41814237  0.22746391  0.25739300    -0.13200
C318        C  0.61674368  0.17560014  0.33314971     0.24800
C319        C  0.64302840  0.14546323  0.35942597    -0.23300
C320        C  0.69008445  0.15312908  0.36382508     0.19700
C321        C  0.71034706  0.19092368  0.34329384     0.24700
C322        C  0.68395504  0.22185879  0.31789181    -0.23200
C323        C  0.63693190  0.21348260  0.31264037     0.19600
F324        F  0.61002714  0.24257344  0.28876020    -0.13200
F325        F  0.57114770  0.16925402  0.32847877    -0.15600
F326        F  0.75607926  0.19644493  0.34733387    -0.15600
F327        F  0.71692014  0.12329634  0.38679374    -0.13200
C328        C  0.37581893  0.82329796  0.56060171     0.24800
C329        C  0.39915439  0.85556669  0.58736654    -0.23300
C330        C  0.40475434  0.84729944  0.63436728     0.19700
C331        C  0.38686489  0.80807185  0.65435856     0.24700
C332        C  0.36291585  0.77624290  0.62781904    -0.23200
C333        C  0.35765113  0.78414454  0.58071708     0.19600
F334        F  0.33581111  0.75346993  0.55387486    -0.13200
F335        F  0.37152669  0.82877858  0.51474811    -0.15600
F336        F  0.39146295  0.80220114  0.70015345    -0.15600
F337        F  0.42636071  0.87787971  0.66145893    -0.13200
C338        C  0.67276131  0.84446856  0.58501412     0.24800
C339        C  0.62817818  0.85666073  0.59792170    -0.23300
C340        C  0.60444753  0.82872575  0.62887060     0.19700
C341        C  0.62483799  0.78972059  0.64659053     0.24700
C342        C  0.66966021  0.77778266  0.63419046    -0.23200
C343        C  0.69334245  0.80566194  0.60308362     0.19600
F344        F  0.73686144  0.79609031  0.59061104    -0.13200
F345        F  0.69699414  0.87037563  0.55524132    -0.15600
F346        F  0.59990916  0.76315555  0.67512223    -0.15600
F347        F  0.56098231  0.83809045  0.64145045    -0.13200
C348        C  0.65973183  0.82179597  0.39401909     0.24800
C349        C  0.63734025  0.85390691  0.36645742    -0.23300
C350        C  0.63245467  0.84537380  0.31940639     0.19700
C351        C  0.65012085  0.80562822  0.30022002     0.24700
C352        C  0.67293886  0.77372585  0.32780678    -0.23200
C353        C  0.67737566  0.78218928  0.37490803     0.19600
F354        F  0.69762006  0.75145777  0.40297209    -0.13200
F355        F  0.66323712  0.82768132  0.43987489    -0.15600
F356        F  0.64593813  0.79905124  0.25448034    -0.15600
F357        F  0.61147821  0.87594045  0.29170026    -0.13200
C358        C  0.33758101  0.81019810  0.34187055     0.24800
C359        C  0.36380125  0.77729516  0.31903450    -0.23300
C360        C  0.41143006  0.78284781  0.31683014     0.19700
C361        C  0.43229920  0.82050403  0.33687925     0.24700
C362        C  0.40596956  0.85389558  0.35882347    -0.23200
C363        C  0.35845632  0.84817147  0.36149400     0.19600
F364        F  0.33191281  0.88006642  0.38182514    -0.13200
F365        F  0.29151550  0.80653017  0.34383052    -0.15600
F366        F  0.47844855  0.82343553  0.33587607    -0.15600
F367        F  0.43816434  0.75128923  0.29621842    -0.13200
C368        C  0.67299650  0.40315069  0.14614117     0.24800
C369        C  0.63750180  0.38000879  0.12366649    -0.23300
C370        C  0.62599807  0.33597333  0.13833230     0.19700
C371        C  0.64842901  0.31607938  0.17528364     0.24700
C372        C  0.68318592  0.33960477  0.19871491    -0.23200
C373        C  0.69565276  0.38320000  0.18309002     0.19600
F374        F  0.72919816  0.40724183  0.20388376    -0.13200
F375        F  0.68543081  0.44564909  0.13303685    -0.15600
F376        F  0.63604205  0.27332284  0.18756295    -0.15600
F377        F  0.59359923  0.31127248  0.11662337    -0.13200
C378        C  0.66973500  0.59044377  0.15592693     0.24800
C379        C  0.63361223  0.61096911  0.13196614    -0.23300
C380        C  0.61446728  0.65120773  0.14962228     0.19700
C381        C  0.63217118  0.67124150  0.18917336     0.24700
C382        C  0.66956076  0.65151848  0.21208293    -0.23200
C383        C  0.68748891  0.61040418  0.19511956     0.19600
F384        F  0.72266303  0.58890589  0.21607960    -0.13200
F385        F  0.68862534  0.55083029  0.14197749    -0.15600
F386        F  0.61268792  0.71018017  0.20452432    -0.15600
F387        F  0.57866724  0.67161226  0.12858946    -0.13200
C388        C  0.43143321  0.64821155  0.15326994     0.24800
C389        C  0.40588006  0.62271040  0.12184691    -0.23300
C390        C  0.35925807  0.61540656  0.13012960     0.19700
C391        C  0.33835484  0.63413125  0.16866197     0.24700
C392        C  0.36379988  0.66038445  0.19973634    -0.23200
C393        C  0.41066727  0.66679817  0.19171761     0.19600
F394        F  0.43705114  0.69009921  0.22169156    -0.13200
F395        F  0.47695731  0.65418953  0.14790175    -0.15600
F396        F  0.29299059  0.62744075  0.17476418    -0.15600
F397        F  0.33354475  0.59097111  0.10042346    -0.13200
C398        C  0.43323776  0.37037596  0.15719735     0.24800
C399        C  0.40505059  0.39777489  0.12977174    -0.23300
C400        C  0.36033050  0.40692592  0.14421728     0.19700
C401        C  0.34392662  0.38863749  0.18498473     0.24700
C402        C  0.37191532  0.36086186  0.21238126    -0.23200
C403        C  0.41687596  0.35210791  0.19806743     0.19600
F404        F  0.44542362  0.32634542  0.22381070    -0.13200
F405        F  0.47701657  0.36173864  0.14492298    -0.15600
F406        F  0.29993266  0.39690650  0.19650714    -0.15600
F407        F  0.33157447  0.43213795  0.11821595    -0.13200
C408        C  0.68608948  0.60944540  0.81840351     0.24800
C409        C  0.64040303  0.61592667  0.83085169    -0.23300
C410        C  0.61277509  0.64488815  0.80447964     0.19700
C411        C  0.63032050  0.66626642  0.76577068     0.24700
C412        C  0.67597874  0.65932485  0.75283709    -0.23200
C413        C  0.70379688  0.63117161  0.78001273     0.19600
F414        F  0.74859293  0.62530856  0.77023640    -0.13200
F415        F  0.71425038  0.58319491  0.84401406    -0.15600
F416        F  0.60204367  0.69263600  0.74039201    -0.15600
F417        F  0.56829681  0.65167772  0.81534515    -0.13200
C418        C  0.67197906  0.40410198  0.81058245     0.24800
C419        C  0.63763735  0.38036774  0.83416438    -0.23300
C420        C  0.62528272  0.33673081  0.81916511     0.19700
C421        C  0.64531884  0.31798834  0.78042419     0.24700
C422        C  0.67898168  0.34199060  0.75597797    -0.23200
C423        C  0.69259764  0.38509906  0.77206800     0.19600
F424        F  0.72526696  0.40959538  0.75028898    -0.13200
F425        F  0.68519242  0.44620962  0.82413353    -0.15600
F426        F  0.63166332  0.27590788  0.76740369    -0.15600
F427        F  0.59443101  0.31124368  0.84227355    -0.13200
C428        C  0.43174982  0.36196817  0.79980672     0.24800
C429        C  0.40386126  0.38714945  0.82952623    -0.23300
C430        C  0.35710426  0.39076798  0.82026076     0.19700
C431        C  0.33871222  0.37081178  0.78123240     0.24700
C432        C  0.36683069  0.34714366  0.75019791    -0.23200
C433        C  0.41343431  0.34212111  0.76046142     0.19600
F434        F  0.44176490  0.31957230  0.73166703    -0.13200
F435        F  0.47717145  0.35820601  0.80774568    -0.15600
F436        F  0.29310889  0.37444270  0.77423911    -0.15600
F437        F  0.32878789  0.41291911  0.84940951    -0.13200
C438        C  0.40481502  0.68121963  0.76853270     0.24800
C439        C  0.36833111  0.65856317  0.74704390    -0.23300
C440        C  0.35450296  0.61607611  0.76448003     0.19700
C441        C  0.37598752  0.59730588  0.80272850     0.24700
C442        C  0.41193226  0.62040463  0.82454774    -0.23200
C443        C  0.42625215  0.66244784  0.80664898     0.19600
F444        F  0.46036470  0.68651553  0.82629725    -0.13200
F445        F  0.41956881  0.72232343  0.75352475    -0.15600
F446        F  0.36155021  0.55620360  0.81810448    -0.15600
F447        F  0.32049068  0.59209295  0.74441573    -0.13200
loop_ 
_geom_bond_atom_site_label_1 
_geom_bond_atom_site_label_2 
_geom_bond_distance 
_geom_bond_site_symmetry_2 
_ccdc_geom_bond_type 
C1           N19   1.351       .  A
C1           C38   1.465       .  S
C1          C442   1.484       .  S
N2           N19   1.323       .  A
N2           N24   1.318       .  A
N2          Co39   2.080       .  S
C3           N28   1.335       .  A
C3           C41   1.463       .  S
C3           H48   1.077       .  S
H4           C45   1.081       .  S
C5           N29   1.335       .  A
C5            C9   1.461       .  S
C5           H34   1.078       .  S
Co6          N24   2.080       .  S
Co6          N14   2.062       .  S
Co6          N46   2.062   1_556  S
Co6          N22   2.082   1_556  S
Co6         Cl50   2.445       .  S
N7           C45   1.339       .  A
N7           N14   1.318       .  A
N7           Co8   2.076       .  S
Co8          N11   2.074       .  S
Co8          N28   2.071   1_556  S
Co8          N15   2.077   1_556  S
Co8         Cl50   2.448       .  S
C9           N47   1.350       .  A
C9          C419   1.476       .  S
N10          N17   1.318       .  A
N10          N40   1.324       .  A
N10         Co43   2.079       .  S
N11          N29   1.318       .  A
N11          N47   1.322       .  A
N12          C41   1.352       .  A
N12          N22   1.324       .  A
H13          C38   1.077       .  S
N14          N35   1.319       .  A
N15          N33   1.317       .  A
N15          N20   1.323       .  A
C16          N20   1.349       .  A
C16          C44   1.465       .  S
C16         C369   1.482       .  S
N17          C32   1.338       .  A
N17         Co39   2.075       .  S
C18          N46   1.335       .  A
C18          C21   1.458       .  S
C18          H52   1.079       .  S
C21          N42   1.349       .  A
C21         C389   1.472       .  S
N22          N28   1.317       .  A
N23          C49   1.337       .  A
N23          N25   1.319       .  A
N23         Co39   2.073   1_554  S
N24          C38   1.339       .  A
N25          N53   1.322       .  A
N25         Co43   2.076   1_554  S
H26          C49   1.081       .  S
H27          C44   1.079       .  S
N29         Co43   2.071       .  S
N30          N42   1.322       .  A
N30          N46   1.317       .  A
N30         Co39   2.076   1_554  S
C31          N35   1.345       .  A
C31          C45   1.462       .  S
C31         C409   1.469       .  S
C32          C51   1.459       .  S
C32          H36   1.080       .  S
N33          C44   1.339       .  A
N33         Co43   2.078   1_554  S
C37          N53   1.349       .  A
C37          C49   1.459       .  S
C37         C399   1.474       .  S
Co39        Cl50   2.448       .  S
N40          C51   1.348       .  A
C41         C379   1.484       .  S
Co43        Cl50   2.442       .  S
C51         C429   1.473       .  S
C54          N72   1.352       .  A
C54          C91   1.459       .  S
C54         C329   1.480       .  S
N55          N72   1.325       .  A
N55          N77   1.319       .  A
N55         Co92   2.089   1_565  S
C56          N81   1.339       .  A
C56          C94   1.462       .  S
C56         H101   1.080       .  S
H57          C98   1.081       .  S
C58          N82   1.337       .  A
C58          C62   1.460       .  S
C58          H87   1.081       .  S
Co59         N77   2.075   1_545  S
Co59         N67   2.083   1_545  S
Co59         N99   2.083       .  S
Co59         N75   2.077       .  S
Co59       Cl103   2.450       .  S
N60          C98   1.339       .  A
N60          N67   1.319       .  A
N60         Co61   2.083   1_565  S
Co61         N64   2.075   1_545  S
Co61         N81   2.075       .  S
Co61         N68   2.084       .  S
Co61       Cl103   2.449       .  S
C62         N100   1.349       .  A
C62         C349   1.474       .  S
N63          N70   1.318       .  A
N63          N93   1.321       .  A
N63         Co96   2.078   1_565  S
N64          N82   1.319       .  A
N64         N100   1.323       .  A
N65          C94   1.349       .  A
N65          N75   1.322       .  A
H66          C91   1.081       .  S
N67          N88   1.324       .  A
N68          N86   1.319       .  A
N68          N73   1.324       .  A
C69          N73   1.350       .  A
C69          C97   1.458       .  S
C69         C319   1.474       .  S
N70          C85   1.338       .  A
N70         Co92   2.074   1_565  S
C71          N99   1.339       .  A
C71          C74   1.460       .  S
C71         H105   1.080       .  S
C74          N95   1.350       .  A
C74         C299   1.479       .  S
N75          N81   1.318       .  A
N76         C102   1.340       .  A
N76          N78   1.319       .  A
N76         Co92   2.081       .  S
N77          C91   1.339       .  A
N78         N106   1.323       .  A
N78         Co96   2.080       .  S
H79         C102   1.081       .  S
H80          C97   1.081       .  S
N82         Co96   2.076   1_565  S
N83          N95   1.325       .  A
N83          N99   1.319       .  A
N83         Co92   2.081       .  S
C84          N88   1.350       .  A
C84          C98   1.460       .  S
C84         C362   1.478       .  S
C85         C104   1.463       .  S
C85          H89   1.081       .  S
N86          C97   1.338       .  A
N86         Co96   2.075       .  S
C90         N106   1.349       .  A
C90         C102   1.460       .  S
C90         C289   1.474       .  S
Co92       Cl103   2.452       .  S
N93         C104   1.349       .  A
C94         C312   1.479       .  S
Co96       Cl103   2.445       .  S
C104        C339   1.479       .  S
C107        N125   1.350       .  A
C107        C144   1.460       .  S
C107        C252   1.477       .  S
N108        N125   1.322       .  A
N108        N130   1.318       .  A
N108       Co145   2.076   1_655  S
C109        N134   1.337       .  A
C109        C147   1.457       .  S
C109        H154   1.081       .  S
H110        C151   1.080       .  S
C111        N135   1.340       .  A
C111        C115   1.461       .  S
C111        H140   1.080       .  S
Co112       N130   2.075   1_455  S
Co112       N120   2.071   1_455  S
Co112       N152   2.072       .  S
Co112       N128   2.087       .  S
Co112      Cl156   2.450       .  S
N113        C151   1.341       .  A
N113        N120   1.319       .  A
N113       Co114   2.085   1_655  S
Co114       N117   2.080   1_455  S
Co114       N134   2.076       .  S
Co114       N121   2.083       .  S
Co114      Cl156   2.445       .  S
C115        N153   1.350       .  A
C115        C269   1.478       .  S
N116        N123   1.319       .  A
N116        N146   1.323       .  A
N116       Co149   2.073   1_655  S
N117        N135   1.318       .  A
N117        N153   1.324       .  A
N118        C147   1.353       .  A
N118        N128   1.326       .  A
H119        C144   1.081       .  S
N120        N141   1.321       .  A
N121        N139   1.319       .  A
N121        N126   1.322       .  A
C122        N126   1.350       .  A
C122        C150   1.461       .  S
C122        C242   1.479       .  S
N123        C138   1.336       .  A
N123       Co145   2.075   1_655  S
C124        N152   1.337       .  A
C124        C127   1.461       .  S
C124        H158   1.080       .  S
C127        N148   1.349       .  A
C127        C219   1.476       .  S
N128        N134   1.319       .  A
N129        C155   1.340       .  A
N129        N131   1.319       .  A
N129       Co145   2.078       .  S
N130        C144   1.338       .  A
N131        N159   1.322       .  A
N131       Co149   2.079       .  S
H132        C155   1.081       .  S
H133        C150   1.080       .  S
N135       Co149   2.080   1_655  S
N136        N148   1.322       .  A
N136        N152   1.319       .  A
N136       Co145   2.077       .  S
C137        N141   1.346       .  A
C137        C151   1.465       .  S
C137        C279   1.477       .  S
C138        C157   1.457       .  S
C138        H142   1.080       .  S
N139        C150   1.340       .  A
N139       Co149   2.077       .  S
C143        N159   1.348       .  A
C143        C155   1.461       .  S
C143        C212   1.473       .  S
Co145      Cl156   2.445       .  S
N146        C157   1.348       .  A
C147        C229   1.479       .  S
Co149      Cl156   2.451       .  S
C157        C262   1.469       .  S
C160        N161   1.360       .  A
C160        N165   1.359       .  A
C160        C272   1.484       .  S
N161        C162   1.360       .  A
C162        N163   1.356       .  A
C162        C372   1.488       .  S
N163        C164   1.354       .  A
C164        N165   1.357       .  A
C164        C322   1.481       .  S
C166        N167   1.354       .  A
C166        N171   1.354       .  A
C166        C282   1.480       .  S
N167        C168   1.358       .  A
C168        N169   1.359       .  A
C168        C352   1.476       .  S
N169        C170   1.358       .  A
C170        N171   1.356       .  A
C170        C382   1.488       .  S
C172        N173   1.355       .  A
C172        N177   1.354       .  A
C172        C422   1.483       .  S
N173        C174   1.356       .  A
C174        N175   1.359       .  A
C174        C292   1.481       .  S
N175        C176   1.359       .  A
C176        N177   1.356       .  A
C176        C259   1.477       .  S
C178        N179   1.359       .  A
C178        N183   1.355       .  A
C178        C359   1.479       .  S
N179        C180   1.360       .  A
C180        N181   1.358       .  A
C180        C232   1.480       .  S
N181        C182   1.357       .  A
C182        N183   1.356       .  A
C182        C392   1.479       .  S
C184        N185   1.355       .  A
C184        N189   1.355       .  A
C184        C332   1.476       .  S
N185        C186   1.358       .  A
C186        N187   1.360       .  A
C186        C222   1.485       .  S
N187        C188   1.359       .  A
C188        N189   1.357       .  A
C188        C439   1.487       .  S
C190        N191   1.355       .  A
C190        N195   1.361       .  A
C190        C432   1.482       .  S
N191        C192   1.352       .  A
C192        N193   1.355       .  A
C192        C209   1.472       .  S
N193        C194   1.359       .  A
C194        N195   1.362       .  A
C194        C302   1.485       .  S
C196        N197   1.355       .  A
C196        N201   1.354       .  A
C196        C412   1.476       .  S
N197        C198   1.357       .  A
C198        N199   1.359       .  A
C198        C342   1.482       .  S
N199        C200   1.358       .  A
C200        N201   1.354       .  A
C200        C249   1.482       .  S
C202        N203   1.360       .  A
C202        N207   1.357       .  A
C202        C309   1.487       .  S
N203        C204   1.359       .  A
C204        N205   1.356       .  A
C204        C239   1.483       .  S
N205        C206   1.355       .  A
C206        N207   1.355       .  A
C206        C402   1.479       .  S
C208        C209   1.406       .  A
C208        C213   1.396       .  A
C208        F215   1.358       .  S
C209        C210   1.405       .  A
C210        C211   1.397       .  A
C210        F217   1.358       .  S
C211        C212   1.406       .  A
C211        F216   1.358       .  S
C212        C213   1.405       .  A
C213        F214   1.357       .  S
C218        C219   1.405       .  A
C218        C223   1.394       .  A
C218        F225   1.357       .  S
C219        C220   1.406       .  A
C220        C221   1.396       .  A
C220        F227   1.358       .  S
C221        C222   1.411       .  A
C221        F226   1.357       .  S
C222        C223   1.411       .  A
C223        F224   1.358       .  S
C228        C229   1.408       .  A
C228        C233   1.396       .  A
C228        F235   1.358       .  S
C229        C230   1.406       .  A
C230        C231   1.400       .  A
C230        F237   1.358       .  S
C231        C232   1.408       .  A
C231        F236   1.358       .  S
C232        C233   1.408       .  A
C233        F234   1.358       .  S
C238        C239   1.409       .  A
C238        C243   1.394       .  A
C238        F245   1.356       .  S
C239        C240   1.408       .  A
C240        C241   1.399       .  A
C240        F247   1.358       .  S
C241        C242   1.408       .  A
C241        F246   1.357       .  S
C242        C243   1.406       .  A
C243        F244   1.358       .  S
C248        C249   1.408       .  A
C248        C253   1.396       .  A
C248        F255   1.358       .  S
C249        C250   1.411       .  A
C250        C251   1.393       .  A
C250        F257   1.357       .  S
C251        C252   1.405       .  A
C251        F256   1.358       .  S
C252        C253   1.407       .  A
C253        F254   1.356       .  S
C258        C259   1.408       .  A
C258        C263   1.397       .  A
C258        F265   1.357       .  S
C259        C260   1.409       .  A
C260        C261   1.392       .  A
C260        F267   1.358       .  S
C261        C262   1.403       .  A
C261        F266   1.358       .  S
C262        C263   1.405       .  A
C263        F264   1.358       .  S
C268        C269   1.405       .  A
C268        C273   1.398       .  A
C268        F275   1.357       .  S
C269        C270   1.405       .  A
C270        C271   1.398       .  A
C270        F277   1.356       .  S
C271        C272   1.409       .  A
C271        F276   1.358       .  S
C272        C273   1.409       .  A
C273        F274   1.357       .  S
C278        C279   1.404       .  A
C278        C283   1.394       .  A
C278        F285   1.354       .  S
C279        C280   1.408       .  A
C280        C281   1.397       .  A
C280        F287   1.358       .  S
C281        C282   1.408       .  A
C281        F286   1.358       .  S
C282        C283   1.408       .  A
C283        F284   1.357       .  S
C288        C289   1.404       .  A
C288        C293   1.396       .  A
C288        F295   1.358       .  S
C289        C290   1.406       .  A
C290        C291   1.398       .  A
C290        F297   1.358       .  S
C291        C292   1.408       .  A
C291        F296   1.357       .  S
C292        C293   1.410       .  A
C293        F294   1.358       .  S
C298        C299   1.408       .  A
C298        C303   1.401       .  A
C298        F305   1.358       .  S
C299        C300   1.405       .  A
C300        C301   1.394       .  A
C300        F307   1.357       .  S
C301        C302   1.409       .  A
C301        F306   1.357       .  S
C302        C303   1.410       .  A
C303        F304   1.358       .  S
C308        C309   1.410       .  A
C308        C313   1.396       .  A
C308        F315   1.357       .  S
C309        C310   1.412       .  A
C310        C311   1.396       .  A
C310        F317   1.358       .  S
C311        C312   1.406       .  A
C311        F316   1.357       .  S
C312        C313   1.407       .  A
C313        F314   1.358       .  S
C318        C319   1.404       .  A
C318        C323   1.397       .  A
C318        F325   1.358       .  S
C319        C320   1.406       .  A
C320        C321   1.397       .  A
C320        F327   1.357       .  S
C321        C322   1.407       .  A
C321        F326   1.357       .  S
C322        C323   1.411       .  A
C323        F324   1.358       .  S
C328        C329   1.410       .  A
C328        C333   1.399       .  A
C328        F335   1.357       .  S
C329        C330   1.406       .  A
C330        C331   1.396       .  A
C330        F337   1.358       .  S
C331        C332   1.406       .  A
C331        F336   1.358       .  S
C332        C333   1.406       .  A
C333        F334   1.358       .  S
C338        C339   1.408       .  A
C338        C343   1.396       .  A
C338        F345   1.358       .  S
C339        C340   1.407       .  A
C340        C341   1.394       .  A
C340        F347   1.356       .  S
C341        C342   1.409       .  A
C341        F346   1.357       .  S
C342        C343   1.408       .  A
C343        F344   1.358       .  S
C348        C349   1.405       .  A
C348        C353   1.393       .  A
C348        F355   1.357       .  S
C349        C350   1.407       .  A
C350        C351   1.398       .  A
C350        F357   1.358       .  S
C351        C352   1.407       .  A
C351        F356   1.358       .  S
C352        C353   1.407       .  A
C353        F354   1.358       .  S
C358        C359   1.406       .  A
C358        C363   1.399       .  A
C358        F365   1.358       .  S
C359        C360   1.409       .  A
C360        C361   1.396       .  A
C360        F367   1.358       .  S
C361        C362   1.406       .  A
C361        F366   1.358       .  S
C362        C363   1.407       .  A
C363        F364   1.357       .  S
C368        C369   1.408       .  A
C368        C373   1.398       .  A
C368        F375   1.358       .  S
C369        C370   1.406       .  A
C370        C371   1.394       .  A
C370        F377   1.356       .  S
C371        C372   1.411       .  A
C371        F376   1.358       .  S
C372        C373   1.410       .  A
C373        F374   1.357       .  S
C378        C379   1.407       .  A
C378        C383   1.391       .  A
C378        F385   1.354       .  S
C379        C380   1.409       .  A
C380        C381   1.400       .  A
C380        F387   1.358       .  S
C381        C382   1.411       .  A
C381        F386   1.358       .  S
C382        C383   1.410       .  A
C383        F384   1.357       .  S
C388        C389   1.405       .  A
C388        C393   1.392       .  A
C388        F395   1.357       .  S
C389        C390   1.406       .  A
C390        C391   1.397       .  A
C390        F397   1.358       .  S
C391        C392   1.409       .  A
C391        F396   1.358       .  S
C392        C393   1.408       .  A
C393        F394   1.357       .  S
C398        C399   1.406       .  A
C398        C403   1.396       .  A
C398        F405   1.358       .  S
C399        C400   1.405       .  A
C400        C401   1.394       .  A
C400        F407   1.357       .  S
C401        C402   1.409       .  A
C401        F406   1.356       .  S
C402        C403   1.408       .  A
C403        F404   1.358       .  S
C408        C409   1.402       .  A
C408        C413   1.392       .  A
C408        F415   1.357       .  S
C409        C410   1.407       .  A
C410        C411   1.393       .  A
C410        F417   1.358       .  S
C411        C412   1.407       .  A
C411        F416   1.357       .  S
C412        C413   1.409       .  A
C413        F414   1.356       .  S
C418        C419   1.407       .  A
C418        C423   1.396       .  A
C418        F425   1.358       .  S
C419        C420   1.405       .  A
C420        C421   1.391       .  A
C420        F427   1.356       .  S
C421        C422   1.409       .  A
C421        F426   1.357       .  S
C422        C423   1.412       .  A
C423        F424   1.358       .  S
C428        C429   1.406       .  A
C428        C433   1.399       .  A
C428        F435   1.358       .  S
C429        C430   1.403       .  A
C430        C431   1.394       .  A
C430        F437   1.358       .  S
C431        C432   1.411       .  A
C431        F436   1.358       .  S
C432        C433   1.408       .  A
C433        F434   1.357       .  S
C438        C439   1.410       .  A
C438        C443   1.394       .  A
C438        F445   1.357       .  S
C439        C440   1.410       .  A
C440        C441   1.398       .  A
C440        F447   1.357       .  S
C441        C442   1.409       .  A
C441        F446   1.358       .  S
C442        C443   1.407       .  A
C443        F444   1.355       .  S
