geometry optimzed in LAMMPS
_audit_creation_date              2020-11-30 
_audit_creation_method            'lammps2cif' 
_symmetry_space_group_name_H-M    'P1' 
_symmetry_Int_Tables_number       1 
_symmetry_cell_setting            triclinic 
loop_ 
_symmetry_equiv_pos_as_xyz 
  x,y,z 
_cell_length_a                    35.03021219476543 
_cell_length_b                    34.97891407544613 
_cell_length_c                    56.43607662666091 
_cell_angle_alpha                 89.89859634606889 
_cell_angle_beta                  90.08191941094783 
_cell_angle_gamma                 89.93746194095056 
loop_ 
_atom_site_label 
_atom_site_type_symbol 
_atom_site_fract_x 
_atom_site_fract_y 
_atom_site_fract_z 
_atom_site_charge 
C1          C  0.25031633  0.49875968  0.25073816    -0.02620
C2          C  0.47964984  0.24922695  0.00250180     0.00430
C3          C  0.01934814  0.25045306  0.00131313     0.00430
C4          C  0.24818828  0.49543966  0.75025080    -0.02620
C5          C  0.00104755  0.25203881  0.75086372    -0.02620
C6          C  0.25007939  0.47749561  0.00103487     0.00430
C7          C  0.25051392  0.01657621  0.00067769     0.00430
N8          N  0.23263916  0.32974449  0.89901109    -0.06250
N9          N  0.22001483  0.35530138  0.91430695    -0.58370
N10         N  0.26915388  0.33070350  0.84504995    -0.05930
N11         N  0.28193468  0.35487980  0.82894040    -0.60500
N12         N  0.23162379  0.33093863  0.84535667    -0.05530
N13         N  0.21806864  0.35537272  0.82970086    -0.58350
N14         N  0.27020959  0.32873469  0.89910323    -0.05210
N15         N  0.28385536  0.35358750  0.91450517    -0.60850
C16         C  0.25225321  0.36997732  0.92380635     0.95920
C17         C  0.24967569  0.37000059  0.81956077     0.95700
N18         N  0.33170403  0.22945693  0.84184366    -0.06440
N19         N  0.35447173  0.21784129  0.82458940    -0.58950
N20         N  0.33340108  0.26260902  0.89775672    -0.04560
N21         N  0.35660198  0.27412053  0.91476195    -0.60200
N22         N  0.33324076  0.22501257  0.89662248    -0.06470
N23         N  0.35618691  0.21024098  0.91287887    -0.59220
N24         N  0.33207642  0.26698746  0.84319905    -0.04200
N25         N  0.35497621  0.28163210  0.82700875    -0.60290
Mn26       Mn  0.30203487  0.29782330  0.87143351     1.18440
C27         C  0.36825518  0.25078192  0.81524789     0.98010
C28         C  0.37067396  0.24123055  0.92399768     0.98670
N29         N  0.16737285  0.26846720  0.84435131    -0.06490
N30         N  0.14564058  0.28225605  0.82714856    -0.62800
N31         N  0.16797469  0.22926500  0.89899031    -0.05290
N32         N  0.14513212  0.21687149  0.91602757    -0.63470
N33         N  0.16842786  0.26690111  0.89885091    -0.05990
N34         N  0.14609759  0.28080121  0.91556486    -0.63060
N35         N  0.16684631  0.23091183  0.84416491    -0.04890
N36         N  0.14491860  0.21833691  0.82686759    -0.63750
Mn37       Mn  0.19931506  0.29949981  0.87189844     1.10660
C38         C  0.13212353  0.25056480  0.81621686     0.99230
C39         C  0.13190773  0.24941367  0.92632333     0.99300
N40         N  0.26913208  0.16152086  0.89535896    -0.06000
N41         N  0.28239197  0.13585874  0.91056513    -0.61380
N42         N  0.22905032  0.16669205  0.84208727    -0.05320
N43         N  0.21492137  0.14352553  0.82584521    -0.58100
N44         N  0.26659976  0.16630171  0.84141504    -0.06630
N45         N  0.27864730  0.14272539  0.82482453    -0.60940
N46         N  0.23157378  0.16235804  0.89586858    -0.05620
N47         N  0.21865299  0.13695526  0.91111018    -0.58130
Mn48       Mn  0.30099337  0.19492084  0.86874529     1.20190
Mn49       Mn  0.19798811  0.19664515  0.87049082     1.10090
Cl50       Cl  0.25010625  0.24716194  0.87080337    -0.86100
C51         C  0.25049285  0.12094734  0.92046350     0.96230
C52         C  0.24615201  0.12895931  0.81504759     0.96030
N53         N  0.16918576  0.22659976  0.15888924    -0.06250
N54         N  0.14745130  0.21190446  0.17567558    -0.58370
N55         N  0.16702822  0.26729567  0.10500599    -0.05930
N56         N  0.14542051  0.28112730  0.08783532    -0.60500
N57         N  0.16804574  0.22972041  0.10408493    -0.05530
N58         N  0.14723728  0.21733094  0.08614913    -0.58350
N59         N  0.16792587  0.26414185  0.15950249    -0.05210
N60         N  0.14501297  0.27577761  0.17659002    -0.60850
C61         C  0.13300263  0.24291209  0.18676842     0.95920
C62         C  0.13350852  0.24972473  0.07599508     0.95700
N63         N  0.26609645  0.33382856  0.10592987    -0.06440
N64         N  0.27874948  0.35917965  0.09051056    -0.58950
N65         N  0.22999948  0.32870214  0.16048957    -0.04560
N66         N  0.21676957  0.35111654  0.17736715    -0.60200
N67         N  0.26752479  0.32986382  0.15993750    -0.06470
N68         N  0.28060381  0.35334611  0.17630938    -0.59220
N69         N  0.22858469  0.33339489  0.10621409    -0.04200
N70         N  0.21491787  0.35856921  0.09090601    -0.60290
Mn71       Mn  0.19742419  0.29906440  0.13279218     1.18440
C72         C  0.24658279  0.37458612  0.08132875     0.98010
C73         C  0.24866458  0.36576328  0.18729435     0.98670
N74         N  0.23242953  0.16579453  0.10313828    -0.06490
N75         N  0.21966062  0.14146475  0.08710161    -0.62800
N76         N  0.27125414  0.16574558  0.15721300    -0.05290
N77         N  0.28529296  0.14366149  0.17407233    -0.63470
N78         N  0.23372551  0.16495893  0.15753595    -0.05990
N79         N  0.22147305  0.14247055  0.17471714    -0.63060
N80         N  0.26994604  0.16645538  0.10303990    -0.04890
N81         N  0.28336904  0.14254516  0.08701935    -0.63750
Mn82       Mn  0.19988923  0.19599360  0.13080898     1.10660
C83         C  0.25177048  0.12728746  0.07699788     0.99230
C84         C  0.25395655  0.12939777  0.18492804     0.99300
N85         N  0.33224693  0.26802107  0.15768452    -0.06000
N86         N  0.35503845  0.28138517  0.17429475    -0.61380
N87         N  0.33081352  0.23304286  0.10265916    -0.05320
N88         N  0.35200388  0.22136743  0.08476898    -0.58100
N89         N  0.32942864  0.27063531  0.10315237    -0.06630
N90         N  0.34937990  0.28529516  0.08551740    -0.60940
N91         N  0.33347064  0.23048594  0.15723018    -0.05620
N92         N  0.35723946  0.21748721  0.17357714    -0.58130
Mn93       Mn  0.29966083  0.30119553  0.13166492     1.20190
Mn94       Mn  0.30233647  0.19818335  0.13000001     1.10090
Cl95       Cl  0.24980669  0.24858931  0.13122616    -0.86100
C96         C  0.37049962  0.24964190  0.18404435     0.96230
C97         C  0.36282902  0.25422741  0.07401843     0.96030
N98         N  0.08058995  0.02017204  0.65720063    -0.06250
N99         N  0.10424750  0.03297724  0.67355766    -0.58370
N100        N  0.08032932  0.48532288  0.60205730    -0.05930
N101        N  0.10341138  0.47397170  0.58489990    -0.60500
N102        N  0.07948977  0.02292599  0.60299234    -0.05530
N103        N  0.10172803  0.03791412  0.58658337    -0.58350
N104        N  0.08113139  0.48260767  0.65658403    -0.05210
N105        N  0.10512907  0.46904177  0.67257997    -0.60850
C106        C  0.11934294  0.00078836  0.68300665     0.95920
C107        C  0.11623646  0.00716111  0.57536128     0.95700
N108        N  0.47958889  0.41898405  0.60231249    -0.06440
N109        N  0.46659645  0.39365153  0.58696562    -0.58950
N110        N  0.01776401  0.41857218  0.65643071    -0.04560
N111        N  0.03109366  0.39533494  0.67300139    -0.60200
N112        N  0.48017548  0.41885449  0.65672915    -0.06470
N113        N  0.46722486  0.39610386  0.67358923    -0.59220
N114        N  0.01715210  0.41947461  0.60205035    -0.04200
N115        N  0.03030874  0.39459360  0.58648253    -0.60290
Mn116      Mn  0.04989252  0.45072675  0.62916747     1.18440
C117        C  0.49851945  0.37855125  0.57717849     0.98010
C118        C  0.49925404  0.38203039  0.68378140     0.98670
N119        N  0.01551150  0.08556778  0.60453215    -0.06490
N120        N  0.02856055  0.10820516  0.58772173    -0.62800
N121        N  0.47904923  0.08310442  0.65925074    -0.05290
N122        N  0.46650079  0.10550979  0.67641415    -0.63470
N123        N  0.01657206  0.08317185  0.65885070    -0.05990
N124        N  0.03021613  0.10564211  0.67559030    -0.63060
N125        N  0.47801529  0.08585438  0.60471199    -0.04890
N126        N  0.46481516  0.10900548  0.58808805    -0.63750
Mn127      Mn  0.04864630  0.05359842  0.63092353     1.10660
C128        C  0.49668962  0.12261701  0.57747884     0.99230
C129        C  0.49874186  0.11921274  0.68662995     0.99300
N130        N  0.41545744  0.48142625  0.65710427    -0.06000
N131        N  0.39127846  0.46749113  0.67280000    -0.61380
N132        N  0.41452912  0.02123143  0.60385150    -0.05320
N133        N  0.39012994  0.03517964  0.58824097    -0.58100
N134        N  0.41474890  0.48359846  0.60300289    -0.06630
N135        N  0.39040396  0.47132700  0.58676350    -0.60940
N136        N  0.41546476  0.01899810  0.65779964    -0.05620
N137        N  0.39131554  0.03139920  0.67393763    -0.58130
Mn138      Mn  0.44686129  0.44997771  0.62967415     1.20190
Mn139      Mn  0.44607217  0.05306666  0.63142437     1.10090
Cl140      Cl  0.49783507  0.00179159  0.63020233    -0.86100
C141        C  0.37682458  0.99899223  0.68337473     0.96230
C142        C  0.37512762  0.00385013  0.57771268     0.96030
N143        N  0.47637629  0.41718763  0.34135611    -0.06250
N144        N  0.46167619  0.39578112  0.32444204    -0.58370
N145        N  0.01591592  0.41288546  0.39485820    -0.05930
N146        N  0.02930074  0.38913396  0.41098523    -0.60500
N147        N  0.47838061  0.41389169  0.39552206    -0.05530
N148        N  0.46547672  0.39043113  0.41204881    -0.58350
N149        N  0.01386409  0.41607468  0.34057407    -0.05210
N150        N  0.02538986  0.39405190  0.32300465    -0.60850
C151        C  0.49250885  0.38166912  0.31301691     0.95920
C152        C  0.49767154  0.37545945  0.42164898     0.95700
N153        N  0.08415607  0.01081785  0.39624770    -0.06440
N154        N  0.10963990  0.02190215  0.41203513    -0.58950
N155        N  0.08009061  0.47633240  0.34098067    -0.04560
N156        N  0.10201599  0.46300362  0.32385933    -0.60200
N157        N  0.08166794  0.01386272  0.34168586    -0.06470
N158        N  0.10451118  0.02685506  0.32493233    -0.59220
N159        N  0.08266694  0.47321539  0.39548792    -0.04200
N160        N  0.10694593  0.45803805  0.41087114    -0.60290
Mn161      Mn  0.04880419  0.44385586  0.36797073     1.18440
C162        C  0.12358372  0.98879358  0.42107865     0.98010
C163        C  0.11657981  0.99486812  0.31376735     0.98670
N164        N  0.41665547  0.48104179  0.39747101    -0.06490
N165        N  0.39256118  0.46881146  0.41383145    -0.62800
N166        N  0.41762267  0.02085305  0.34373800    -0.05290
N167        N  0.39524445  0.03592182  0.32739562    -0.63470
N168        N  0.41591217  0.48333204  0.34309844    -0.05990
N169        N  0.39258616  0.47207965  0.32611903    -0.63060
N170        N  0.41880429  0.01859275  0.39789435    -0.04890
N171        N  0.39649668  0.03253873  0.41458548    -0.63750
Mn172      Mn  0.44595021  0.44802843  0.36947506     1.10660
C173        C  0.38047865  0.00125814  0.42460055     0.99230
C174        C  0.37992610  0.00521363  0.31648139     0.99300
N175        N  0.02147897  0.07979780  0.34342679    -0.06000
N176        N  0.03538473  0.10252263  0.32686214    -0.61380
N177        N  0.48488034  0.07980722  0.39794739    -0.05320
N178        N  0.47214271  0.10410802  0.41387916    -0.58100
N179        N  0.02243252  0.07912366  0.39789582    -0.06630
N180        N  0.03584575  0.10349289  0.41381349    -0.60940
N181        N  0.48397261  0.08159875  0.34375108    -0.05620
N182        N  0.47157712  0.10593861  0.32755362    -0.58130
Mn183      Mn  0.05329026  0.04658403  0.37000746     1.20190
Mn184      Mn  0.45071884  0.05084083  0.37086675     1.10090
Cl185      Cl  0.49969912  0.99732146  0.36984780    -0.86100
C186        C  0.50392656  0.11821704  0.31693676     0.96230
C187        C  0.50398919  0.11872330  0.42380145     0.96030
C188        C  0.99636910  0.26886767  0.50027336     0.00430
C189        C  0.00506386  0.23058630  0.49984457     0.00430
C190        C  0.26751543  0.51436190  0.49918725     0.00430
C191        C  0.22796330  0.50980257  0.49855956     0.00430
C192        C  0.00010599  0.24806662  0.25039555    -0.02620
C193        C  0.02184153  0.34897226  0.27855921    -0.12400
C194        C  0.49111676  0.35218869  0.29426054     0.04600
C195        C  0.46134741  0.32534300  0.29286492    -0.07690
C196        C  0.46522179  0.29374614  0.27801236    -0.08430
C197        C  0.99808371  0.28742376  0.26389856    -0.02990
C198        C  0.02468198  0.31848910  0.26245465     0.03830
N199        N  0.05368537  0.32126236  0.24462122     0.66340
H200        H  0.04357764  0.37100179  0.27843268     0.15240
H201        H  0.44262990  0.27278111  0.27828931     0.14950
N202        N  0.42776398  0.32839661  0.30719575     0.74040
O203        O  0.08746164  0.32934186  0.25063445    -0.39410
O204        O  0.04400540  0.32602734  0.22327623    -0.39350
O205        O  0.40389771  0.35460731  0.30297002    -0.40050
O206        O  0.41809319  0.30077344  0.32029259    -0.40120
C207        C  0.00964411  0.14452387  0.27637833    -0.12400
C208        C  0.50526118  0.15094322  0.30063122     0.04600
C209        C  0.50233404  0.18859497  0.30910901    -0.07690
C210        C  0.50229763  0.21889301  0.29288079    -0.08430
C211        C  0.00280225  0.21326320  0.26795276    -0.02990
C212        C  0.00868263  0.17479723  0.25999143     0.03830
N213        N  0.01591700  0.16573346  0.23562885     0.66340
H214        H  0.01337700  0.11554129  0.27001290     0.15240
H215        H  0.50303636  0.24699917  0.30052119     0.14950
N216        N  0.49958975  0.19690594  0.33408839     0.74040
O217        O  0.04683301  0.14945181  0.23013337    -0.39410
O218        O  0.48925803  0.16691102  0.22060950    -0.39350
O219        O  0.01764816  0.17720290  0.34915695    -0.40050
O220        O  0.48170483  0.22618025  0.34102562    -0.40120
C221        C  0.03710922  0.17036981  0.44664088    -0.12400
C222        C  0.50361432  0.14960701  0.44198376     0.04600
C223        C  0.47036150  0.15855859  0.45502472    -0.07690
C224        C  0.47199010  0.18584240  0.47302297    -0.08430
C225        C  0.00508853  0.20717913  0.47759998    -0.02990
C226        C  0.03830449  0.19942911  0.46398221     0.03830
N227        N  0.07367879  0.21936715  0.46781950     0.66340
H228        H  0.06258615  0.16413941  0.43650122     0.15240
H229        H  0.44687896  0.18996371  0.48386103     0.14950
N230        N  0.43466647  0.13988988  0.45069278     0.74040
O231        O  0.10507877  0.20342030  0.46300052    -0.39410
O232        O  0.07379877  0.25403553  0.47383102    -0.39350
O233        O  0.41887111  0.12132471  0.46717419    -0.40050
O234        O  0.41507363  0.14956704  0.43287007    -0.40120
C235        C  0.02528207  0.32114990  0.47704639    -0.12400
C236        C  0.99651622  0.29324136  0.47848406     0.04600
C237        C  0.46823461  0.29196969  0.46043870    -0.07690
C238        C  0.46951750  0.31904350  0.44196562    -0.08430
C239        C  0.49834846  0.34678247  0.44084345    -0.02990
C240        C  0.02696729  0.34717154  0.45836514     0.03830
N241        N  0.05719314  0.37470170  0.45806977     0.66340
H242        H  0.04723083  0.32260734  0.49053983     0.15240
H243        H  0.44752954  0.31872102  0.42844051     0.14950
N244        N  0.43761480  0.26465355  0.46061174     0.74040
O245        O  0.06030757  0.39809754  0.47496003    -0.39410
O246        O  0.08508591  0.36993138  0.44425215    -0.39350
O247        O  0.42095301  0.25605619  0.47965335    -0.40050
O248        O  0.42411797  0.25239422  0.44130958    -0.40120
C249        C  0.15602614  0.96153480  0.45706001    -0.12400
C250        C  0.15617441  0.98716609  0.43788530     0.04600
C251        C  0.18614126  0.51375842  0.43602309    -0.07690
C252        C  0.21125452  0.51845994  0.45506434    -0.08430
C253        C  0.20890111  0.49619113  0.47578343    -0.02990
C254        C  0.18267236  0.96507703  0.47582196     0.03830
N255        N  0.18145140  0.43832498  0.49525003     0.66340
H256        H  0.13404838  0.93982811  0.45791879     0.15240
H257        H  0.23109131  0.54132444  0.45375387     0.14950
N258        N  0.19139456  0.03632966  0.41492497     0.74040
O259        O  0.15136725  0.91973776  0.49957118    -0.39410
O260        O  0.21132229  0.43065159  0.50686976    -0.39350
O261        O  0.18687140  0.02129705  0.39479911    -0.40050
O262        O  0.20548277  0.56947370  0.41618053    -0.40120
C263        C  0.30915951  0.47554386  0.47325036    -0.12400
C264        C  0.29156791  0.51104974  0.47740634     0.04600
C265        C  0.30316418  0.04340170  0.46384394    -0.07690
C266        C  0.33196367  0.03856361  0.44674315    -0.08430
C267        C  0.35043633  0.00336077  0.44319726    -0.02990
C268        C  0.33908498  0.47149560  0.45691512     0.03830
N269        N  0.35930585  0.43578052  0.45595682     0.66340
H270        H  0.30132539  0.45123921  0.48413630     0.15240
H271        H  0.34035402  0.06285779  0.43605688     0.14950
N272        N  0.28658360  0.08113266  0.46686686     0.74040
O273        O  0.39517916  0.93533158  0.45819312    -0.39410
O274        O  0.34119652  0.40470269  0.45758860    -0.39350
O275        O  0.25751649  0.08649226  0.47963276    -0.40050
O276        O  0.30009535  0.60943473  0.45577789    -0.40120
C277        C  0.13410875  0.51827961  0.53369621    -0.12400
C278        C  0.14565249  0.00993522  0.55679762     0.04600
C279        C  0.18494208  0.01020105  0.56222075    -0.07690
C280        C  0.21153923  0.01329114  0.54364911    -0.08430
C281        C  0.20052289  0.51660056  0.51957497    -0.02990
C282        C  0.16085054  0.52395415  0.51548576     0.03830
N283        N  0.14743963  0.54040421  0.49366039     0.66340
H284        H  0.10398818  0.52243090  0.53007377     0.15240
H285        H  0.24051419  0.01324388  0.54906253     0.14950
N286        N  0.19862961  0.00862563  0.58635555     0.74040
O287        O  0.11515854  0.53120337  0.48547845    -0.39410
O288        O  0.16439983  0.06905499  0.48505783    -0.39350
O289        O  0.18077045  0.49025905  0.60208270    -0.40050
O290        O  0.22968305  0.02463912  0.59188844    -0.40120
C291        C  0.29583723  0.97866887  0.53357577    -0.12400
C292        C  0.29182285  0.51347548  0.52114082     0.04600
C293        C  0.31588202  0.54421894  0.52756389    -0.07690
C294        C  0.34248582  0.53986596  0.54585552    -0.08430
C295        C  0.34545081  0.00584141  0.55884124    -0.02990
C296        C  0.32045968  0.97528733  0.55328193     0.03830
N297        N  0.31759179  0.94211260  0.56824819     0.66340
H298        H  0.27784377  0.95477058  0.52872844     0.15240
H299        H  0.36099340  0.56374717  0.54999571     0.14950
N300        N  0.31373501  0.58047934  0.51605409     0.74040
O301        O  0.30903302  0.91011822  0.55940382    -0.39410
O302        O  0.31581377  0.44613537  0.59045400    -0.39350
O303        O  0.28787737  0.10351523  0.52223381    -0.40050
O304        O  0.34296381  0.59330523  0.50567173    -0.40120
C305        C  0.46902831  0.19949996  0.53243197    -0.12400
C306        C  0.00452547  0.20737693  0.52201871     0.04600
C307        C  0.03697524  0.18683655  0.52975021    -0.07690
C308        C  0.03322229  0.15952661  0.54773076    -0.08430
C309        C  0.49767089  0.15109278  0.55793194    -0.02990
C310        C  0.46499104  0.17101863  0.54977966     0.03830
N311        N  0.42735779  0.16152621  0.55776753     0.66340
H312        H  0.44371054  0.21356703  0.52570439     0.15240
H313        H  0.05860303  0.14455199  0.55364453     0.14950
N314        N  0.07390228  0.19281644  0.51948246     0.74040
O315        O  0.40494181  0.18782803  0.56415285    -0.39410
O316        O  0.41384944  0.12891318  0.55318862    -0.39350
O317        O  0.08825496  0.22583903  0.51929410    -0.40050
O318        O  0.09500749  0.16450059  0.51490230    -0.40120
C319        C  0.46363929  0.33815868  0.54815624    -0.12400
C320        C  0.49817821  0.34690393  0.55954057     0.04600
C321        C  0.03129109  0.32594676  0.55324427    -0.07690
C322        C  0.02928974  0.29865571  0.53504118    -0.08430
C323        C  0.99502253  0.29098386  0.52305880    -0.02990
C324        C  0.46179663  0.31073787  0.53013809     0.03830
N325        N  0.42585742  0.30387772  0.51902193     0.66340
H326        H  0.43778592  0.35340458  0.55282483     0.15240
H327        H  0.05520087  0.28471745  0.52944272     0.14950
N328        N  0.06719254  0.33193892  0.56488446     0.74040
O329        O  0.40527073  0.27688179  0.52652342    -0.39410
O330        O  0.41080928  0.32993334  0.50663468    -0.39350
O331        O  0.06998986  0.32638337  0.58692613    -0.40050
O332        O  0.09721161  0.33564782  0.55274503    -0.40120
C333        C  0.10534760  0.23969915  0.22719569    -0.12400
C334        C  0.09995321  0.24109603  0.20267024     0.04600
C335        C  0.06276790  0.24148976  0.19338703    -0.07690
C336        C  0.03182539  0.24213118  0.20891685    -0.08430
C337        C  0.03608734  0.24482856  0.23390753    -0.02990
C338        C  0.07422453  0.24104331  0.24293439     0.03830
N339        N  0.08217931  0.23622473  0.26773311     0.66340
H340        H  0.13409948  0.23794934  0.23424138     0.15240
H341        H  0.00434076  0.23903094  0.20066528     0.14950
N342        N  0.05556273  0.24149326  0.16822210     0.74040
O343        O  0.10179973  0.20793608  0.27449618    -0.39050
O344        O  0.07584081  0.26294733  0.28216615    -0.39350
O345        O  0.07482800  0.22055438  0.15451499    -0.40050
O346        O  0.02713898  0.25932822  0.15994853    -0.40120
C347        C  0.40306925  0.22112474  0.21899996    -0.12400
C348        C  0.40113397  0.25027216  0.20201996     0.04600
C349        C  0.42776483  0.28030447  0.20295060    -0.07690
C350        C  0.45657117  0.27944782  0.21999062    -0.08430
C351        C  0.46199424  0.24805601  0.23554996    -0.02990
C352        C  0.43182049  0.22044592  0.23643233     0.03830
N353        N  0.42780487  0.19305273  0.25520168     0.66340
H354        H  0.38105037  0.19938280  0.21928997     0.15240
H355        H  0.47728277  0.30225455  0.21959871     0.14950
N356        N  0.42810342  0.31041361  0.18563016     0.74040
O357        O  0.42097242  0.20461875  0.27593123    -0.39410
O358        O  0.42089832  0.15856626  0.25020903    -0.39350
O359        O  0.43323392  0.34455437  0.19210610    -0.40050
O360        O  0.43034178  0.30232793  0.16388003    -0.40120
C361        C  0.28419822  0.05538981  0.03040597    -0.12400
C362        C  0.24942968  0.03972828  0.02290493     0.04600
C363        C  0.21513501  0.05119577  0.03440675    -0.07690
C364        C  0.21725084  0.07967341  0.05205146    -0.08430
C365        C  0.25199592  0.09682435  0.05856676    -0.02990
C366        C  0.28596755  0.08371622  0.04780893     0.03830
N367        N  0.32248559  0.09966910  0.05349384     0.66340
H368        H  0.31041646  0.04666024  0.02193234     0.15240
H369        H  0.19127935  0.08901348  0.06065645     0.14950
N370        N  0.17815110  0.03537910  0.02849059     0.74040
O371        O  0.34945965  0.07782042  0.05963434    -0.39410
O372        O  0.32990878  0.13368578  0.04760125    -0.39350
O373        O  0.17423047  0.01108982  0.01220980    -0.40050
O374        O  0.14875053  0.04566911  0.03974147    -0.40120
C375        C  0.27598257  0.45601551  0.04025973    -0.12400
C376        C  0.24616244  0.45530118  0.02363227     0.04600
C377        C  0.21496341  0.43036287  0.02762052    -0.07690
C378        C  0.21493695  0.40624873  0.04740469    -0.08430
C379        C  0.24600122  0.40493507  0.06299169    -0.02990
C380        C  0.27658352  0.43088626  0.05970412     0.03830
N381        N  0.30831798  0.43231586  0.07581552     0.66340
H382        H  0.29972234  0.47533178  0.03764970     0.15240
H383        H  0.19119515  0.38681744  0.04981151     0.14950
N384        N  0.18323041  0.42827805  0.01167535     0.74040
O385        O  0.34172665  0.43706567  0.06797881    -0.39410
O386        O  0.30258510  0.43424489  0.09786095    -0.39350
O387        O  0.18587090  0.40728119  0.99360898    -0.40050
O388        O  0.15037422  0.43629224  0.01938360    -0.40120
C389        C  0.21894588  0.06230146  0.97358467    -0.12400
C390        C  0.25081866  0.03938564  0.97818954     0.04600
C391        C  0.28237876  0.04163864  0.96257343    -0.07690
C392        C  0.28162482  0.06772248  0.94349815    -0.08430
C393        C  0.25008087  0.09183069  0.93973857    -0.02990
C394        C  0.21827363  0.08820451  0.95484942     0.03830
N395        N  0.18660031  0.11362843  0.95311678     0.66340
H396        H  0.19474607  0.06183774  0.98535912     0.15240
H397        H  0.30622518  0.06979895  0.93195678     0.14950
N398        N  0.31596011  0.01916731  0.96625635     0.74040
O399        O  0.15293925  0.10088868  0.95408551    -0.39410
O400        O  0.19244764  0.14900919  0.95490769    -0.39350
O401        O  0.32853220  0.99876693  0.94956680    -0.40050
O402        O  0.33760499  0.02674387  0.98348070    -0.40120
C403        C  0.22650706  0.45706180  0.96100990    -0.12400
C404        C  0.25413646  0.45439773  0.97898821     0.04600
C405        C  0.28281363  0.42611993  0.97730920    -0.07690
C406        C  0.28192525  0.39976043  0.95875719    -0.08430
C407        C  0.25324136  0.40101171  0.94151216    -0.02990
C408        C  0.22583956  0.43085025  0.94213498     0.03830
N409        N  0.19764058  0.43529459  0.92379382     0.66340
H410        H  0.20448319  0.47872688  0.96217486     0.15240
H411        H  0.30346112  0.37750917  0.95813197     0.14950
N412        N  0.31270400  0.42327008  0.99456488     0.74040
O413        O  0.16478594  0.44775675  0.92879027    -0.39410
O414        O  0.20705665  0.43219631  0.90229517    -0.39350
O415        O  0.32104638  0.39124961  0.00344148    -0.40050
O416        O  0.33335542  0.45180692  0.99918807    -0.40120
C417        C  0.47268232  0.18669795  0.73731107    -0.12400
C418        C  0.50260207  0.21359518  0.73650524     0.04600
C419        C  0.03455573  0.20390524  0.72187193    -0.07690
C420        C  0.03265656  0.17267422  0.70642352    -0.08430
C421        C  0.50004272  0.14968386  0.70498855    -0.02990
C422        C  0.47024717  0.15634918  0.72122207     0.03830
N423        N  0.43713770  0.13268644  0.72196392     0.66340
H424        H  0.45030061  0.18876612  0.75028158     0.15240
H425        H  0.05677225  0.16718746  0.69490988     0.14950
N426        N  0.06916896  0.22560671  0.72206694     0.74040
O427        O  0.42728705  0.11832297  0.74155548    -0.39410
O428        O  0.41260469  0.13590758  0.70568782    -0.39350
O429        O  0.09713781  0.21312839  0.73390790    -0.40050
O430        O  0.07537415  0.24933815  0.70566085    -0.40120
C431        C  0.99819163  0.28146983  0.70836653    -0.12400
C432        C  0.49969096  0.28710267  0.73329800     0.04600
C433        C  0.49746162  0.32585254  0.74121284    -0.07690
C434        C  0.49757075  0.35617807  0.72479123    -0.08430
C435        C  0.49904480  0.34947834  0.70038147    -0.02990
C436        C  0.99911632  0.31161477  0.69201619     0.03830
N437        N  0.00022748  0.30283117  0.66704487     0.66340
H438        H  0.99500268  0.25342312  0.70083002     0.15240
H439        H  0.49613700  0.38532644  0.73121627     0.14950
N440        N  0.49292301  0.33525967  0.76570845     0.74040
O441        O  0.01659153  0.27275924  0.65997483    -0.39410
O442        O  0.98238000  0.32306751  0.65216215    -0.39350
O443        O  0.52132700  0.34721369  0.77728343    -0.40050
O444        O  0.45986433  0.34285909  0.77323486    -0.40120
C445        C  0.06671170  0.27928014  0.76500772    -0.12400
C446        C  0.03803940  0.25085686  0.76648249     0.04600
C447        C  0.04474781  0.21991821  0.78257102    -0.07690
C448        C  0.07614275  0.22045813  0.79775605    -0.08430
C449        C  0.10240996  0.25045806  0.79752570    -0.02990
C450        C  0.09854974  0.27959472  0.78031370     0.03830
N451        N  0.12724124  0.30863862  0.77737104     0.66340
H452        H  0.06539557  0.30103737  0.75147267     0.15240
H453        H  0.07931017  0.19730071  0.81040245     0.14950
N454        N  0.01987469  0.18752204  0.78405296     0.74040
O455        O  0.11810457  0.34135467  0.76974056    -0.39410
O456        O  0.16218620  0.30023116  0.77918020    -0.39350
O457        O  0.02946542  0.15719162  0.77353163    -0.40050
O458        O  0.99681412  0.18516340  0.80114903    -0.40120
C459        C  0.46881682  0.26199270  0.79204751    -0.12400
C460        C  0.46471701  0.25556715  0.76731043     0.04600
C461        C  0.42636689  0.25417333  0.75860682    -0.07690
C462        C  0.39556304  0.25109899  0.77453275    -0.08430
C463        C  0.40124607  0.25263878  0.79906422    -0.02990
C464        C  0.43813754  0.25978685  0.80789320     0.03830
N465        N  0.44524217  0.26472990  0.83287926     0.66340
H466        H  0.49625851  0.26853631  0.79969236     0.15240
H467        H  0.36679681  0.24844215  0.76763768     0.14950
N468        N  0.41785356  0.25565918  0.73378398     0.74040
O469        O  0.42825842  0.24427229  0.84799391    -0.39410
O470        O  0.47135502  0.28693518  0.83981022    -0.39350
O471        O  0.39974234  0.22837916  0.72443465    -0.40050
O472        O  0.41719793  0.28782097  0.72363622    -0.40120
C473        C  0.30709970  0.02781431  0.73133246    -0.12400
C474        C  0.28147989  0.99670344  0.73184548     0.04600
C475        C  0.28587554  0.46865705  0.71357976    -0.07690
C476        C  0.31799235  0.46928489  0.69887482    -0.08430
C477        C  0.34521607  0.99829187  0.70057952    -0.02990
C478        C  0.33944142  0.02807732  0.71689464     0.03830
N479        N  0.36679420  0.05812697  0.71986460     0.66340
H480        H  0.30295383  0.05244677  0.74241108     0.15240
H481        H  0.32086458  0.44746623  0.68537511     0.14950
N482        N  0.25757530  0.44023260  0.70874459     0.74040
O483        O  0.35558981  0.09129702  0.72527249    -0.39410
O484        O  0.40183895  0.05007682  0.72153321    -0.39350
O485        O  0.23324092  0.44724240  0.69280241    -0.40050
O486        O  0.26504391  0.40572960  0.71334634    -0.40120
C487        C  0.20838382  0.02577131  0.71782008    -0.12400
C488        C  0.21127175  0.99525398  0.73437012     0.04600
C489        C  0.18166020  0.46688114  0.73358811    -0.07690
C490        C  0.15189906  0.47030421  0.71704738    -0.08430
C491        C  0.15050171  0.00018929  0.70062689    -0.02990
C492        C  0.17932749  0.02815315  0.70090048     0.03830
N493        N  0.18133665  0.05758660  0.68315203     0.66340
H494        H  0.23020764  0.04768463  0.71754027     0.15240
H495        H  0.12989862  0.44853169  0.71667186     0.14950
N496        N  0.18100864  0.43343213  0.74819187     0.74040
O497        O  0.19134278  0.09099338  0.68885857    -0.39410
O498        O  0.17996513  0.04880527  0.66147385    -0.39350
O499        O  0.15268063  0.42790730  0.76157325    -0.40050
O500        O  0.20200514  0.40537153  0.74299361    -0.40120
C501        C  0.21562425  0.05644854  0.76834736    -0.12400
C502        C  0.24786057  0.03170464  0.76711556     0.04600
C503        C  0.27813687  0.03960205  0.78347778    -0.07690
C504        C  0.27699917  0.07200199  0.79790036    -0.08430
C505        C  0.24557450  0.09654010  0.79818999    -0.02990
C506        C  0.21432141  0.08831247  0.78339165     0.03830
N507        N  0.18095723  0.11199377  0.78316256     0.66340
H508        H  0.18992615  0.05090761  0.75840272     0.15240
H509        H  0.30079043  0.07709075  0.80978642     0.14950
N510        N  0.31044412  0.01506777  0.78633128     0.74040
O511        O  0.17135719  0.12870925  0.76422930    -0.39410
O512        O  0.15695001  0.10910827  0.79971989    -0.39350
O513        O  0.34278552  0.02753998  0.78022052    -0.40050
O514        O  0.30908993  0.98978964  0.80229304    -0.40120
C515        C  0.22356230  0.45961441  0.78581887    -0.12400
C516        C  0.25125938  0.46070420  0.76755094     0.04600
C517        C  0.28059285  0.43168136  0.76826047    -0.07690
C518        C  0.27821213  0.40214555  0.78500668    -0.08430
C519        C  0.24921485  0.40083558  0.80184581    -0.02990
C520        C  0.22193946  0.43021755  0.80245531     0.03830
N521        N  0.19311073  0.43160285  0.82037169     0.66340
H522        H  0.20168899  0.48148907  0.78670866     0.15240
H523        H  0.30024074  0.38034766  0.78531857     0.14950
N524        N  0.31462680  0.43203759  0.75408239     0.74040
O525        O  0.19371200  0.45813352  0.83549457    -0.39410
O526        O  0.16330951  0.41170077  0.81808509    -0.39350
O527        O  0.33965556  0.45718337  0.75780779    -0.40050
O528        O  0.32490792  0.40160703  0.74389844    -0.40120
C529        C  0.08765674  0.21601723  0.04983398    -0.12400
C530        C  0.10583793  0.25024703  0.05598124     0.04600
C531        C  0.09553063  0.28417919  0.04392519    -0.07690
C532        C  0.06506031  0.28357063  0.02776329    -0.08430
C533        C  0.04552970  0.24962077  0.02223312    -0.02990
C534        C  0.05831835  0.21461933  0.03279014     0.03830
N535        N  0.04071716  0.17793770  0.02795038     0.66340
H536        H  0.09600264  0.18997204  0.05884278     0.15240
H537        H  0.05778124  0.30970397  0.01857492     0.14950
N538        N  0.11714897  0.31879013  0.04656855     0.74040
O539        O  0.05237540  0.14812472  0.03836023    -0.39410
O540        O  0.01237540  0.17496704  0.01433154    -0.39350
O541        O  0.15304501  0.31785513  0.04463950    -0.40050
O542        O  0.10039933  0.35076524  0.04626013    -0.40120
C543        C  0.42696117  0.23728418  0.06141079    -0.12400
C544        C  0.39304370  0.25599767  0.05599227     0.04600
C545        C  0.39119901  0.27941597  0.03565776    -0.07690
C546        C  0.42320682  0.28124831  0.02059314    -0.08430
C547        C  0.45661648  0.25946795  0.02471657    -0.02990
C548        C  0.45938817  0.24095102  0.04724245     0.03830
N549        N  0.49456999  0.23577698  0.05950660     0.66340
H550        H  0.42957196  0.22288531  0.07838793     0.15240
H551        H  0.42075383  0.29715801  0.00416699     0.14950
N552        N  0.35669611  0.29917853  0.02900627     0.74040
O553        O  0.50033193  0.20457493  0.07023837    -0.39410
O554        O  0.51109304  0.26534966  0.06718748    -0.39350
O555        O  0.35803428  0.32596070  0.01404137    -0.40050
O556        O  0.32444538  0.28712893  0.03559324    -0.40120
C557        C  0.06443395  0.21809449  0.97460352    -0.12400
C558        C  0.04220412  0.25075180  0.97882576     0.04600
C559        C  0.05199765  0.28523791  0.96647959    -0.07690
C560        C  0.07981251  0.28341394  0.94838310    -0.08430
C561        C  0.10254965  0.25075898  0.94530310    -0.02990
C562        C  0.09736588  0.21985831  0.96078540     0.03830
N563        N  0.12906949  0.19607110  0.96714221     0.66340
H564        H  0.06006956  0.19286007  0.98514880     0.15240
H565        H  0.08513454  0.30821384  0.93737743     0.14950
N566        N  0.03405062  0.32176545  0.97143844     0.74040
O567        O  0.12319315  0.16452762  0.97741292    -0.39410
O568        O  0.16138333  0.21165135  0.96945740    -0.39350
O569        O  0.00894206  0.32526723  0.98730193    -0.40050
O570        O  0.04208491  0.35075595  0.95904763    -0.40120
C571        C  0.39390819  0.21883682  0.96343468    -0.12400
C572        C  0.40045332  0.23960877  0.94261662     0.04600
C573        C  0.43560647  0.25837457  0.93986709    -0.07690
C574        C  0.46119941  0.25971644  0.95888111    -0.08430
C575        C  0.45487375  0.24072125  0.98057051    -0.02990
C576        C  0.42068154  0.21840768  0.98218501     0.03830
N577        N  0.41173021  0.19625507  0.00293607     0.66340
H578        H  0.36745808  0.20303318  0.96521047     0.15240
H579        H  0.48491429  0.27818738  0.95636908     0.14950
N580        N  0.44694919  0.27478922  0.91760479     0.74040
O581        O  0.37755244  0.19317973  0.00976518    -0.39410
O582        O  0.43689168  0.17567465  0.01258750    -0.39350
O583        O  0.42759952  0.30120359  0.90820637    -0.40050
O584        O  0.47947628  0.26706431  0.90925675    -0.40120
C585        C  0.34962341  0.47769465  0.28089748    -0.12400
C586        C  0.35072775  0.00701977  0.29766042     0.04600
C587        C  0.32278402  0.03591144  0.29680921    -0.07690
C588        C  0.29267903  0.03284324  0.28069518    -0.08430
C589        C  0.28838545  0.00091114  0.26549483    -0.02990
C590        C  0.32026494  0.47524639  0.26407139     0.03830
N591        N  0.32519268  0.44790338  0.24541875     0.66340
H592        H  0.37250190  0.45680601  0.28050070     0.15240
H593        H  0.27083463  0.05473957  0.28106906     0.14950
N594        N  0.32277116  0.06714289  0.31319018     0.74040
O595        O  0.33245075  0.45961427  0.22475345    -0.39410
O596        O  0.33292262  0.41362435  0.25060809    -0.39350
O597        O  0.34738762  0.09325113  0.31114071    -0.40050
O598        O  0.29387296  0.07284158  0.32605599    -0.40120
C599        C  0.21812975  0.49478094  0.29222140    -0.12400
C600        C  0.21432202  0.99478979  0.26717330     0.04600
C601        C  0.17657551  0.98824636  0.25813388    -0.07690
C602        C  0.14506939  0.98828956  0.27360292    -0.08430
C603        C  0.14980048  0.99423697  0.29791494    -0.02990
C604        C  0.18676268  0.49638837  0.30736681     0.03830
N605        N  0.19314038  0.49989229  0.33242843     0.66340
H606        H  0.24547497  0.49356660  0.30083251     0.15240
H607        H  0.11663440  0.98399215  0.26650335     0.14950
N608        N  0.16957880  0.97919354  0.23373098     0.74040
O609        O  0.21873049  0.48011542  0.34238720    -0.39410
O610        O  0.17801775  0.02703996  0.34374352    -0.39350
O611        O  0.15443104  0.44755585  0.22852602    -0.40050
O612        O  0.17236701  0.00457971  0.21794074    -0.40120
C613        C  0.28402157  0.04558842  0.22308425    -0.12400
C614        C  0.25050334  0.03739904  0.23625311     0.04600
C615        C  0.22106853  0.06590712  0.23547919    -0.07690
C616        C  0.22262396  0.09498927  0.21825781    -0.08430
C617        C  0.25471127  0.10002687  0.20383705    -0.02990
C618        C  0.28660047  0.07643664  0.20754248     0.03830
N619        N  0.32166638  0.08251270  0.19519696     0.66340
H620        H  0.30845295  0.02684857  0.22415643     0.15240
H621        H  0.19909574  0.11501867  0.21686362     0.14950
N622        N  0.19093668  0.06826571  0.25256286     0.74040
O623        O  0.34918468  0.09847901  0.20569463    -0.39410
O624        O  0.32703272  0.06696734  0.17532041    -0.39350
O625        O  0.19914475  0.07541071  0.27387658    -0.40050
O626        O  0.15705476  0.07362166  0.24561400    -0.40120
C627        C  0.24413166  0.39381835  0.22727702    -0.12400
C628        C  0.24806417  0.39911463  0.20290635     0.04600
C629        C  0.25121085  0.43626139  0.19358281    -0.07690
C630        C  0.25076567  0.46738195  0.20906718    -0.08430
C631        C  0.24955301  0.46303169  0.23407543    -0.02990
C632        C  0.24494827  0.42486679  0.24298624     0.03830
N633        N  0.23902516  0.41681928  0.26766347     0.66340
H634        H  0.24087306  0.36511346  0.23425479     0.15240
H635        H  0.25038804  0.49505288  0.20076851     0.14950
N636        N  0.25479546  0.44322766  0.16847363     0.74040
O637        O  0.21001454  0.39795886  0.27390374    -0.39410
O638        O  0.26561925  0.42172087  0.28242282    -0.39350
O639        O  0.23647404  0.42342504  0.15364667    -0.40050
O640        O  0.27381299  0.47150026  0.16111585    -0.40120
C641        C  0.25032049  0.99876572  0.25074067    -0.02620
C642        C  0.47965214  0.74920096  0.00250518     0.00430
C643        C  0.01935653  0.75043298  0.00131239     0.00430
C644        C  0.24819425  0.99543828  0.75024982    -0.02620
C645        C  0.00104673  0.75203747  0.75086641    -0.02620
C646        C  0.25009206  0.97749323  0.00103177     0.00430
C647        C  0.25050381  0.51657881  0.00067989     0.00430
N648        N  0.23264223  0.82974509  0.89901030    -0.06250
N649        N  0.22001842  0.85530217  0.91430609    -0.58370
N650        N  0.26915455  0.83070283  0.84504853    -0.05930
N651        N  0.28193510  0.85487851  0.82893867    -0.60500
N652        N  0.23162450  0.83093842  0.84535593    -0.05530
N653        N  0.21806910  0.85537238  0.82970008    -0.58350
N654        N  0.27021265  0.82873649  0.89910119    -0.05210
N655        N  0.28385896  0.85359073  0.91450194    -0.60850
C656        C  0.25225712  0.86997997  0.92380385     0.95920
C657        C  0.24967610  0.86999947  0.81955938     0.95700
N658        N  0.33170629  0.72945779  0.84184308    -0.06440
N659        N  0.35447455  0.71784187  0.82458920    -0.58950
N660        N  0.33340541  0.76261333  0.89775463    -0.04560
N661        N  0.35660665  0.77412710  0.91475907    -0.60200
N662        N  0.33324491  0.72501674  0.89662207    -0.06470
N663        N  0.35619088  0.71024731  0.91287933    -0.59220
N664        N  0.33207759  0.76698839  0.84319760    -0.04200
N665        N  0.35497707  0.78163286  0.82700712    -0.60290
Mn666      Mn  0.30203695  0.79782479  0.87143167     1.18440
C667        C  0.36825704  0.75078244  0.81524704     0.98010
C668        C  0.37067837  0.74123839  0.92399647     0.98670
N669        N  0.16737387  0.76846693  0.84435256    -0.06490
N670        N  0.14564108  0.78225530  0.82714993    -0.62800
N671        N  0.16797778  0.72926611  0.89899169    -0.05290
N672        N  0.14513386  0.71687230  0.91602809    -0.63470
N673        N  0.16843077  0.76690221  0.89885255    -0.05990
N674        N  0.14609942  0.78080188  0.91556626    -0.63060
N675        N  0.16684786  0.73091157  0.84416637    -0.04890
N676        N  0.14491981  0.71833613  0.82686933    -0.63750
Mn677      Mn  0.19931697  0.79950021  0.87189885     1.10660
C678        C  0.13212409  0.75056376  0.81621855     0.99230
C679        C  0.13190883  0.74941398  0.92632419     0.99300
N680        N  0.26913684  0.66152207  0.89535988    -0.06000
N681        N  0.28239680  0.63585830  0.91056512    -0.61380
N682        N  0.22905293  0.66669286  0.84208881    -0.05320
N683        N  0.21492310  0.64352641  0.82584708    -0.58100
N684        N  0.26660237  0.66630196  0.84141620    -0.06630
N685        N  0.27864902  0.64272516  0.82482567    -0.60940
N686        N  0.23157851  0.66235963  0.89586976    -0.05620
N687        N  0.21865788  0.63695583  0.91111064    -0.58130
Mn688      Mn  0.30099695  0.69492235  0.86874569     1.20190
Mn689      Mn  0.19799131  0.69664611  0.87049225     1.10090
Cl690      Cl  0.25010892  0.74716294  0.87080354    -0.86100
C691        C  0.25049759  0.62094641  0.92046314     0.96230
C692        C  0.24615310  0.62895952  0.81504921     0.96030
N693        N  0.16918357  0.72660681  0.15889105    -0.06250
N694        N  0.14744862  0.71191021  0.17567667    -0.58370
N695        N  0.16702947  0.76730794  0.10500938    -0.05930
N696        N  0.14542674  0.78114176  0.08783696    -0.60500
N697        N  0.16804905  0.72973301  0.10408618    -0.05530
N698        N  0.14724839  0.71734626  0.08614643    -0.58350
N699        N  0.16792394  0.76414887  0.15950550    -0.05210
N700        N  0.14501053  0.77578330  0.17659312    -0.60850
C701        C  0.13299972  0.74291692  0.18677027     0.95920
C702        C  0.13352071  0.74974104  0.07599274     0.95700
N703        N  0.26609679  0.83383832  0.10593561    -0.06440
N704        N  0.27875032  0.85918718  0.09051491    -0.58950
N705        N  0.22999845  0.82870804  0.16049491    -0.04560
N706        N  0.21676877  0.85112227  0.17737256    -0.60200
N707        N  0.26752372  0.82986889  0.15994311    -0.06470
N708        N  0.28060315  0.85335024  0.17631524    -0.59220
N709        N  0.22858501  0.83340413  0.10621906    -0.04200
N710        N  0.21491838  0.85857480  0.09090853    -0.60290
Mn711      Mn  0.19742356  0.79907314  0.13279663     1.18440
C712        C  0.24658356  0.87459084  0.08133118     0.98010
C713        C  0.24866407  0.86576775  0.18730003     0.98670
N714        N  0.23242657  0.66580181  0.10313996    -0.06490
N715        N  0.21965688  0.64147091  0.08710412    -0.62800
N716        N  0.27124954  0.66574910  0.15721528    -0.05290
N717        N  0.28528759  0.64366228  0.17407351    -0.63470
N718        N  0.23372089  0.66496298  0.15753773    -0.05990
N719        N  0.22146765  0.64247209  0.17471754    -0.63060
N720        N  0.26994305  0.66646134  0.10304187    -0.04890
N721        N  0.28336527  0.64254884  0.08702218    -0.63750
Mn722      Mn  0.19988726  0.69600168  0.13081063     1.10660
C723        C  0.25176615  0.62729122  0.07700099     0.99230
C724        C  0.25395076  0.62939724  0.18492813     0.99300
N725        N  0.33224384  0.76802535  0.15768965    -0.06000
N726        N  0.35503642  0.78138831  0.17429962    -0.61380
N727        N  0.33081003  0.73305097  0.10266448    -0.05320
N728        N  0.35200360  0.72137581  0.08477607    -0.58100
N729        N  0.32942769  0.77064350  0.10315870    -0.06630
N730        N  0.34938488  0.78530374  0.08552645    -0.60940
N731        N  0.33346666  0.73049014  0.15723471    -0.05620
N732        N  0.35723608  0.71749038  0.17358105    -0.58130
Mn733      Mn  0.29965960  0.80120243  0.13167062     1.20190
Mn734      Mn  0.30233267  0.69818902  0.13000348     1.10090
Cl735      Cl  0.24980489  0.74859650  0.13123008    -0.86100
C736        C  0.37049735  0.74964446  0.18404851     0.96230
C737        C  0.36283472  0.75423590  0.07402810     0.96030
N738        N  0.08058580  0.52017565  0.65720018    -0.06250
N739        N  0.10424271  0.53298070  0.67355763    -0.58370
N740        N  0.08033353  0.98531837  0.60205821    -0.05930
N741        N  0.10341574  0.97396689  0.58490099    -0.60500
N742        N  0.07948563  0.52293047  0.60299170    -0.05530
N743        N  0.10172381  0.53791888  0.58658275    -0.58350
N744        N  0.08113540  0.98260403  0.65658470    -0.05210
N745        N  0.10513363  0.96903829  0.67258034    -0.60850
C746        C  0.11933794  0.50079174  0.68300668     0.95920
C747        C  0.11623209  0.50716605  0.57536034     0.95700
N748        N  0.47959397  0.91898141  0.60231194    -0.06440
N749        N  0.46660118  0.89364899  0.58696512    -0.58950
N750        N  0.01776799  0.91856840  0.65643193    -0.04560
N751        N  0.03109711  0.89533165  0.67300308    -0.60200
N752        N  0.48018164  0.91885156  0.65672872    -0.06470
N753        N  0.46723142  0.89610111  0.67358902    -0.59220
N754        N  0.01715646  0.91947009  0.60205137    -0.04200
N755        N  0.03031295  0.89458936  0.58648332    -0.60290
Mn756      Mn  0.04989672  0.95072256  0.62916846     1.18440
C757        C  0.49852395  0.87854876  0.57717764     0.98010
C758        C  0.49926083  0.88202773  0.68378099     0.98670
N759        N  0.01550706  0.58557155  0.60453208    -0.06490
N760        N  0.02855634  0.60820823  0.58772141    -0.62800
N761        N  0.47904375  0.58310603  0.65925099    -0.05290
N762        N  0.46649572  0.60551076  0.67641486    -0.63470
N763        N  0.01656764  0.58317483  0.65885059    -0.05990
N764        N  0.03021197  0.60564402  0.67559063    -0.63060
N765        N  0.47801031  0.58585629  0.60471219    -0.04890
N766        N  0.46481057  0.60900693  0.58808787    -0.63750
Mn767      Mn  0.04864196  0.55360216  0.63092322     1.10660
C768        C  0.49668528  0.62261780  0.57747864     0.99230
C769        C  0.49873717  0.61921252  0.68663084     0.99300
N770        N  0.41546432  0.98142376  0.65710446    -0.06000
N771        N  0.39128636  0.96748858  0.67280073    -0.61380
N772        N  0.41452369  0.52123397  0.60385136    -0.05320
N773        N  0.39012467  0.53518227  0.58824076    -0.58100
N774        N  0.41475440  0.98359592  0.60300302    -0.06630
N775        N  0.39040942  0.97132438  0.58676368    -0.60940
N776        N  0.41545803  0.51900060  0.65779949    -0.05620
N777        N  0.39130793  0.53140175  0.67393697    -0.58130
Mn778      Mn  0.44686712  0.94997510  0.62967399     1.20190
Mn779      Mn  0.44606654  0.55306894  0.63142444     1.10090
Cl780      Cl  0.49782962  0.50179383  0.63020278    -0.86100
C781        C  0.37681621  0.49899482  0.68337372     0.96230
C782        C  0.37512233  0.50385280  0.57771243     0.96030
N783        N  0.47637978  0.91718995  0.34135677    -0.06250
N784        N  0.46167984  0.89578280  0.32444295    -0.58370
N785        N  0.01591946  0.91288715  0.39485802    -0.05930
N786        N  0.02930403  0.88913509  0.41098479    -0.60500
N787        N  0.47838376  0.91389321  0.39552265    -0.05530
N788        N  0.46547975  0.89043183  0.41204889    -0.58350
N789        N  0.01386765  0.91607729  0.34057402    -0.05210
N790        N  0.02539289  0.89405373  0.32300483    -0.60850
C791        C  0.49251260  0.88167038  0.31301808     0.95920
C792        C  0.49767453  0.87545985  0.42164892     0.95700
N793        N  0.08415274  0.51081624  0.39624662    -0.06440
N794        N  0.10963667  0.52190102  0.41203386    -0.58950
N795        N  0.08009413  0.97633556  0.34098140    -0.04560
N796        N  0.10201962  0.96300750  0.32385993    -0.60200
N797        N  0.08166451  0.51385959  0.34168460    -0.06470
N798        N  0.10450786  0.52685117  0.32493084    -0.59220
N799        N  0.08267038  0.97321701  0.39548851    -0.04200
N800        N  0.10694932  0.95803922  0.41087160    -0.60290
Mn801      Mn  0.04880782  0.94385809  0.36797095     1.18440
C802        C  0.12358045  0.48879272  0.42107776     0.98010
C803        C  0.11657637  0.49486375  0.31376622     0.98670
N804        N  0.41665913  0.98104331  0.39747201    -0.06490
N805        N  0.39256491  0.96881247  0.41383229    -0.62800
N806        N  0.41761876  0.52085025  0.34373632    -0.05290
N807        N  0.39524021  0.53591844  0.32739385    -0.63470
N808        N  0.41591613  0.98333487  0.34309965    -0.05990
N809        N  0.39259034  0.97208304  0.32612002    -0.63060
N810        N  0.41880064  0.51859124  0.39789293    -0.04890
N811        N  0.39649300  0.53253771  0.41458391    -0.63750
Mn812      Mn  0.44595372  0.94803053  0.36947587     1.10660
C813        C  0.38047489  0.50125745  0.42459936     0.99230
C814        C  0.37992166  0.50520987  0.31648000     0.99300
N815        N  0.02147494  0.57979487  0.34342553    -0.06000
N816        N  0.03538057  0.60252017  0.32686111    -0.61380
N817        N  0.48487748  0.57980513  0.39794552    -0.05320
N818        N  0.47214008  0.60410620  0.41387723    -0.58100
N819        N  0.02242920  0.57912193  0.39789445    -0.06630
N820        N  0.03584273  0.60349170  0.41381171    -0.60940
N821        N  0.48396996  0.58159578  0.34374926    -0.05620
N822        N  0.47157500  0.60593643  0.32755209    -0.58130
Mn823      Mn  0.05328667  0.54658162  0.37000615     1.20190
Mn824      Mn  0.45071557  0.55083851  0.37086499     1.10090
Cl825      Cl  0.49969598  0.49731904  0.36984640    -0.86100
C826        C  0.50392477  0.61821476  0.31693557     0.96230
C827        C  0.50398669  0.61872131  0.42379949     0.96030
C828        C  0.99637035  0.76886776  0.50027175     0.00430
C829        C  0.00506331  0.73058603  0.49984265     0.00430
C830        C  0.26751935  0.01435978  0.49918825     0.00430
C831        C  0.22796733  0.00979994  0.49856059     0.00430
C832        C  0.00010333  0.74806720  0.25039698    -0.02620
C833        C  0.02184251  0.84897237  0.27856006    -0.12400
C834        C  0.49112055  0.85218905  0.29426215     0.04600
C835        C  0.46135126  0.82534319  0.29286703    -0.07690
C836        C  0.46522513  0.79374616  0.27801454    -0.08430
C837        C  0.99808274  0.78742410  0.26390027    -0.02990
C838        C  0.02468157  0.81848897  0.26245569     0.03830
N839        N  0.05368375  0.82126196  0.24462149     0.66340
H840        H  0.04357899  0.87100153  0.27843297     0.15240
H841        H  0.44263318  0.77278120  0.27829182     0.14950
N842        N  0.42776826  0.82839696  0.30719823     0.74040
O843        O  0.08746071  0.82934016  0.25063391    -0.39410
O844        O  0.04400233  0.82602832  0.22327686    -0.39350
O845        O  0.40390136  0.85460697  0.30297224    -0.40050
O846        O  0.41809836  0.80077425  0.32029570    -0.40120
C847        C  0.00964009  0.64452343  0.27637818    -0.12400
C848        C  0.50526035  0.65094159  0.30063070     0.04600
C849        C  0.50233498  0.68859309  0.30910919    -0.07690
C850        C  0.50230005  0.71889182  0.29288148    -0.08430
C851        C  0.00279929  0.71326317  0.26795367    -0.02990
C852        C  0.00867913  0.67479742  0.25999175     0.03830
N853        N  0.01591347  0.66573446  0.23562904     0.66340
H854        H  0.01337263  0.61554105  0.27001233     0.15240
H855        H  0.50303990  0.74699770  0.30052226     0.14950
N856        N  0.49959078  0.69690309  0.33408870     0.74040
O857        O  0.04682910  0.64945221  0.23013341    -0.39410
O858        O  0.48925732  0.66691103  0.22060978    -0.39350
O859        O  0.01764407  0.67719940  0.34915734    -0.40050
O860        O  0.48170732  0.72617804  0.34102634    -0.40120
C861        C  0.03710733  0.67036881  0.44663892    -0.12400
C862        C  0.50361224  0.64960517  0.44198179     0.04600
C863        C  0.47035951  0.65855761  0.45502264    -0.07690
C864        C  0.47198868  0.68584122  0.47302103    -0.08430
C865        C  0.00508740  0.70717908  0.47759793    -0.02990
C866        C  0.03830323  0.69942820  0.46398020     0.03830
N867        N  0.07367804  0.71936534  0.46781755     0.66340
H868        H  0.06258419  0.66413768  0.43649937     0.15240
H869        H  0.44687757  0.68996309  0.48385903     0.14950
N870        N  0.43466398  0.63989003  0.45069040     0.74040
O871        O  0.10507761  0.70341779  0.46299845    -0.39410
O872        O  0.07379890  0.75403360  0.47382933    -0.39350
O873        O  0.41886730  0.62132599  0.46717181    -0.40050
O874        O  0.41507218  0.64956729  0.43286727    -0.40120
C875        C  0.02528453  0.82114945  0.47704506    -0.12400
C876        C  0.99651792  0.79324170  0.47848267     0.04600
C877        C  0.46823633  0.79196943  0.46043760    -0.07690
C878        C  0.46951957  0.81904378  0.44196486    -0.08430
C879        C  0.49835132  0.84678194  0.44084282    -0.02990
C880        C  0.02697018  0.84717131  0.45836399     0.03830
N881        N  0.05719661  0.87470082  0.45806869     0.66340
H882        H  0.04723348  0.82260612  0.49053841     0.15240
H883        H  0.44753122  0.81872247  0.42843999     0.14950
N884        N  0.43761567  0.76465423  0.46061060     0.74040
O885        O  0.06031105  0.89809706  0.47495874    -0.39410
O886        O  0.08508954  0.86992975  0.44425129    -0.39350
O887        O  0.42095423  0.75605657  0.47965229    -0.40050
O888        O  0.42411788  0.75239603  0.44130842    -0.40120
C889        C  0.15602260  0.46153543  0.45705960    -0.12400
C890        C  0.15617113  0.48716577  0.43788441     0.04600
C891        C  0.18614447  0.01375889  0.43602439    -0.07690
C892        C  0.21125805  0.01845936  0.45506557    -0.08430
C893        C  0.20890492  0.99618954  0.47578427    -0.02990
C894        C  0.18266860  0.46507857  0.47582158     0.03830
N895        N  0.18145548  0.93832243  0.49524989     0.66340
H896        H  0.13404477  0.43982885  0.45791871     0.15240
H897        H  0.23109488  0.04132385  0.45375540     0.14950
N898        N  0.19139169  0.53632799  0.41492319     0.74040
O899        O  0.15136303  0.41974070  0.49957160    -0.39410
O900        O  0.21132652  0.93064858  0.50686936    -0.39350
O901        O  0.18686816  0.52129440  0.39479764    -0.40050
O902        O  0.20548502  0.06947557  0.41618301    -0.40120
C903        C  0.30916315  0.97554269  0.47325086    -0.12400
C904        C  0.29157158  0.01104842  0.47740728     0.04600
C905        C  0.30316059  0.54340250  0.46384252    -0.07690
C906        C  0.33195999  0.53856375  0.44674170    -0.08430
C907        C  0.35043257  0.50336074  0.44319616    -0.02990
C908        C  0.33908875  0.97149510  0.45691571     0.03830
N909        N  0.35930978  0.93578013  0.45595701     0.66340
H910        H  0.30132899  0.95123763  0.48413644     0.15240
H911        H  0.34035034  0.56285755  0.43605510     0.14950
N912        N  0.28658022  0.58113363  0.46686502     0.74040
O913        O  0.39517526  0.43533191  0.45819270    -0.39410
O914        O  0.34120055  0.90470217  0.45758821    -0.39350
O915        O  0.25751304  0.58649373  0.47963079    -0.40050
O916        O  0.30009846  0.10943411  0.45577995    -0.40120
C917        C  0.13411315  0.01827644  0.53369746    -0.12400
C918        C  0.14564820  0.50994034  0.55679663     0.04600
C919        C  0.18493781  0.51020782  0.56221977    -0.07690
C920        C  0.21153498  0.51329738  0.54364806    -0.08430
C921        C  0.20052716  0.01659681  0.51957615    -0.02990
C922        C  0.16085498  0.02395149  0.51548714     0.03830
N923        N  0.14744432  0.04040291  0.49366211     0.66340
H924        H  0.10399268  0.02242879  0.53007518     0.15240
H925        H  0.24050998  0.51325194  0.54906149     0.14950
N926        N  0.19862529  0.50863443  0.58635464     0.74040
O927        O  0.11516320  0.03120279  0.48547991    -0.39410
O928        O  0.16439484  0.56905597  0.48505546    -0.39350
O929        O  0.18077462  0.99024920  0.60208308    -0.40050
O930        O  0.22967851  0.52464872  0.59188709    -0.40120
C931        C  0.29583158  0.47867187  0.53357568    -0.12400
C932        C  0.29182708  0.01347306  0.52114169     0.04600
C933        C  0.31588560  0.04421684  0.52756513    -0.07690
C934        C  0.34248981  0.03986371  0.54585651    -0.08430
C935        C  0.34544574  0.50584414  0.55884084    -0.02990
C936        C  0.32045377  0.47529054  0.55328198     0.03830
N937        N  0.31758487  0.44211653  0.56824879     0.66340
H938        H  0.27783748  0.45477390  0.52872871     0.15240
H939        H  0.36099683  0.06374523  0.54999698     0.14950
N940        N  0.31373769  0.08047765  0.51605591     0.74040
O941        O  0.30902501  0.41012205  0.55940497    -0.39410
O942        O  0.31582026  0.94613047  0.59045346    -0.39350
O943        O  0.28787497  0.60351764  0.52223141    -0.40050
O944        O  0.34296610  0.09330453  0.50567361    -0.40120
C945        C  0.46902641  0.69949976  0.53243052    -0.12400
C946        C  0.00452387  0.70737665  0.52201668     0.04600
C947        C  0.03697288  0.68683530  0.52974828    -0.07690
C948        C  0.03321904  0.65952622  0.54772920    -0.08430
C949        C  0.49766725  0.65109250  0.55793118    -0.02990
C950        C  0.46498813  0.67101941  0.54977874     0.03830
N951        N  0.42735461  0.66152929  0.55776719     0.66340
H952        H  0.44370921  0.71356779  0.52570287     0.15240
H953        H  0.05859927  0.64455082  0.55364303     0.14950
N954        N  0.07390005  0.69281350  0.51948037     0.74040
O955        O  0.40494006  0.68783260  0.56415209    -0.39410
O956        O  0.41384453  0.62891667  0.55318911    -0.39350
O957        O  0.08825438  0.72583538  0.51929221    -0.40050
O958        O  0.09500382  0.66449667  0.51489999    -0.40120
C959        C  0.46364293  0.83815730  0.54815520    -0.12400
C960        C  0.49818212  0.84690171  0.55953948     0.04600
C961        C  0.03129438  0.82594431  0.55324333    -0.07690
C962        C  0.02929234  0.79865428  0.53503965    -0.08430
C963        C  0.99502477  0.79098350  0.52305738    -0.02990
C964        C  0.46179955  0.81073692  0.53013685     0.03830
N965        N  0.42586025  0.80387836  0.51902044     0.66340
H966        H  0.43778993  0.85340374  0.55282391     0.15240
H967        H  0.05520319  0.78471597  0.52944070     0.14950
N968        N  0.06719620  0.83193567  0.56488323     0.74040
O969        O  0.40527134  0.77688459  0.52652257    -0.39410
O970        O  0.41081444  0.82993399  0.50663211    -0.39350
O971        O  0.06999414  0.82637905  0.58692476    -0.40050
O972        O  0.09721493  0.83564505  0.55274353    -0.40120
C973        C  0.10534443  0.73970032  0.22719716    -0.12400
C974        C  0.09995014  0.74109934  0.20267178     0.04600
C975        C  0.06276489  0.74149339  0.19338841    -0.07690
C976        C  0.03182218  0.74213402  0.20891811    -0.08430
C977        C  0.03608424  0.74482923  0.23390884    -0.02990
C978        C  0.07422130  0.74104314  0.24293572     0.03830
N979        N  0.08217586  0.73622339  0.26773435     0.66340
H980        H  0.13409625  0.73795010  0.23424291     0.15240
H981        H  0.00433734  0.73903555  0.20066651     0.14950
N982        N  0.05556011  0.74149807  0.16822345     0.74040
O983        O  0.10179425  0.70793313  0.27449711    -0.39050
O984        O  0.07583987  0.76294640  0.28216755    -0.39350
O985        O  0.07482562  0.72055980  0.15451611    -0.40050
O986        O  0.02713636  0.75933319  0.15995003    -0.40120
C987        C  0.40306941  0.72112555  0.21900268    -0.12400
C988        C  0.40113283  0.75027382  0.20202336     0.04600
C989        C  0.42776322  0.78030652  0.20295417    -0.07690
C990        C  0.45657109  0.77944900  0.21999313    -0.08430
C991        C  0.46199514  0.74805664  0.23555188    -0.02990
C992        C  0.43182141  0.72044645  0.23643454     0.03830
N993        N  0.42780622  0.69305322  0.25520390     0.66340
H994        H  0.38105071  0.69938343  0.21929279     0.15240
H995        H  0.47728250  0.80225595  0.21960106     0.14950
N996        N  0.42809922  0.81041751  0.18563506     0.74040
O997        O  0.42097426  0.70461924  0.27593352    -0.39410
O998        O  0.42089927  0.65856682  0.25021128    -0.39350
O999        O  0.43322326  0.84455840  0.19211270    -0.40050
O1000       O  0.43034079  0.80233452  0.16388467    -0.40120
C1001       C  0.28418985  0.55538972  0.03040955    -0.12400
C1002       C  0.24942041  0.53973126  0.02290746     0.04600
C1003       C  0.21512656  0.55119912  0.03441031    -0.07690
C1004       C  0.21724397  0.57967687  0.05205512    -0.08430
C1005       C  0.25198996  0.59682630  0.05857053    -0.02990
C1006       C  0.28596081  0.58371518  0.04781319     0.03830
N1007       N  0.32248009  0.59966368  0.05349959     0.66340
H1008       H  0.31040787  0.54665884  0.02193634     0.15240
H1009       H  0.19127277  0.58901889  0.06065966     0.14950
N1010       N  0.17814210  0.53538142  0.02849631     0.74040
O1011       O  0.34945032  0.57781184  0.05964228    -0.39410
O1012       O  0.32990872  0.63367877  0.04760614    -0.39350
O1013       O  0.17421270  0.51112390  0.01219809    -0.40050
O1014       O  0.14874916  0.54564137  0.03976536    -0.40120
C1015       C  0.27597516  0.95603007  0.04026756    -0.12400
C1016       C  0.24617394  0.95529254  0.02362711     0.04600
C1017       C  0.21499316  0.93032552  0.02760034    -0.07690
C1018       C  0.21495949  0.90621652  0.04738664    -0.08430
C1019       C  0.24600279  0.90493356  0.06299041    -0.02990
C1020       C  0.27657010  0.93090634  0.05971512     0.03830
N1021       N  0.30828118  0.93236546  0.07584351     0.66340
H1022       H  0.29970437  0.97536232  0.03766697     0.15240
H1023       H  0.19123135  0.88676563  0.04978256     0.14950
N1024       N  0.18329218  0.92819861  0.01163322     0.74040
O1025       O  0.34169519  0.93715719  0.06802539    -0.39410
O1026       O  0.30251666  0.93427434  0.09788644    -0.39350
O1027       O  0.18596316  0.90713271  0.99359928    -0.40050
O1028       O  0.15042282  0.93624528  0.01930657    -0.40120
C1029       C  0.21894772  0.56231352  0.97358791    -0.12400
C1030       C  0.25081431  0.53938870  0.97819174     0.04600
C1031       C  0.28237316  0.54163213  0.96257377    -0.07690
C1032       C  0.28162340  0.56771553  0.94349769    -0.08430
C1033       C  0.25008419  0.59183037  0.93973860    -0.02990
C1034       C  0.21827826  0.58821186  0.95485067     0.03830
N1035       N  0.18660741  0.61363769  0.95311590     0.66340
H1036       H  0.19474991  0.56186058  0.98536382     0.15240
H1037       H  0.30622277  0.56978602  0.93195511     0.14950
N1038       N  0.31594896  0.51915153  0.96625560     0.74040
O1039       O  0.15294543  0.60089830  0.95407320    -0.39410
O1040       O  0.19245527  0.64901773  0.95491142    -0.39350
O1041       O  0.32852921  0.49876631  0.94956129    -0.40050
O1042       O  0.33757964  0.52669862  0.98349177    -0.40120
C1043       C  0.22650214  0.95705396  0.96101351    -0.12400
C1044       C  0.25414578  0.95440110  0.97898372     0.04600
C1045       C  0.28283380  0.92613615  0.97729788    -0.07690
C1046       C  0.28194278  0.89977606  0.95874598    -0.08430
C1047       C  0.25324608  0.90101557  0.94150867    -0.02990
C1048       C  0.22583296  0.93084316  0.94213855     0.03830
N1049       N  0.19762034  0.93527695  0.92380463     0.66340
H1050       H  0.20447027  0.97871003  0.96218479     0.15240
H1051       H  0.30348684  0.87753331  0.95811466     0.14950
N1052       N  0.31273550  0.92329835  0.99454752     0.74040
O1053       O  0.16476222  0.94772018  0.92881023    -0.39410
O1054       O  0.20702558  0.93219137  0.90230343    -0.39350
O1055       O  0.32113822  0.89127185  0.00339334    -0.40050
O1056       O  0.33333459  0.95186151  0.99919812    -0.40120
C1057       C  0.47268097  0.68669814  0.73731221    -0.12400
C1058       C  0.50260257  0.71359345  0.73650652     0.04600
C1059       C  0.03455414  0.70390368  0.72187449    -0.07690
C1060       C  0.03265407  0.67267351  0.70642550    -0.08430
C1061       C  0.50003930  0.64968290  0.70498970    -0.02990
C1062       C  0.47024387  0.65634982  0.72122301     0.03830
N1063       N  0.43713265  0.63268937  0.72196438     0.66340
H1064       H  0.45029925  0.68876759  0.75028262     0.15240
H1065       H  0.05676961  0.66718671  0.69491175     0.14950
N1066       N  0.06916786  0.72560438  0.72206974     0.74040
O1067       O  0.42728037  0.61832625  0.74155572    -0.39410
O1068       O  0.41260045  0.63591209  0.70568793    -0.39350
O1069       O  0.09713652  0.71312502  0.73391045    -0.40050
O1070       O  0.07537336  0.74933653  0.70566409    -0.40120
C1071       C  0.99819062  0.78146794  0.70836906    -0.12400
C1072       C  0.49969617  0.78710098  0.73329858     0.04600
C1073       C  0.49746871  0.82585115  0.74121307    -0.07690
C1074       C  0.49757863  0.85617633  0.72479117    -0.08430
C1075       C  0.49905190  0.84947603  0.70038142    -0.02990
C1076       C  0.99911676  0.81161253  0.69201853     0.03830
N1077       N  0.00022778  0.80282839  0.66704730     0.66340
H1078       H  0.99500053  0.75342125  0.70083271     0.15240
H1079       H  0.49614588  0.88532488  0.73121596     0.14950
N1080       N  0.49293088  0.83525899  0.76570863     0.74040
O1081       O  0.01659111  0.77275588  0.65997753    -0.39410
O1082       O  0.98238061  0.82306469  0.65216442    -0.39350
O1083       O  0.52133562  0.84721182  0.77728338    -0.40050
O1084       O  0.45987268  0.84286016  0.77323517    -0.40120
C1085       C  0.06671118  0.77927873  0.76500992    -0.12400
C1086       C  0.03803890  0.75085546  0.76648492     0.04600
C1087       C  0.04474773  0.71991678  0.78257336    -0.07690
C1088       C  0.07614310  0.72045665  0.79775810    -0.08430
C1089       C  0.10241023  0.75045665  0.79752755    -0.02990
C1090       C  0.09854951  0.77959336  0.78031563     0.03830
N1091       N  0.12724076  0.80863745  0.77737278     0.66340
H1092       H  0.06539487  0.80103595  0.75147488     0.15240
H1093       H  0.07931088  0.69729922  0.81040446     0.14950
N1094       N  0.01987456  0.68752067  0.78405553     0.74040
O1095       O  0.11810364  0.84135363  0.76974273    -0.39410
O1096       O  0.16218583  0.80023009  0.77918132    -0.39350
O1097       O  0.02946459  0.65719045  0.77353374    -0.40050
O1098       O  0.99681489  0.68516176  0.80115206    -0.40120
C1099       C  0.46881926  0.76199295  0.79204801    -0.12400
C1100       C  0.46471976  0.75556804  0.76731089     0.04600
C1101       C  0.42636987  0.75417616  0.75860683    -0.07690
C1102       C  0.39556565  0.75110163  0.77453236    -0.08430
C1103       C  0.40124830  0.75263960  0.79906388    -0.02990
C1104       C  0.43813961  0.75978704  0.80789338     0.03830
N1105       N  0.44524368  0.76472951  0.83287956     0.66340
H1106       H  0.49626101  0.76853564  0.79969311     0.15240
H1107       H  0.36679950  0.74844587  0.76763699     0.14950
N1108       N  0.41785726  0.75566358  0.73378393     0.74040
O1109       O  0.42825870  0.74427244  0.84799394    -0.39410
O1110       O  0.47135708  0.78693383  0.83981092    -0.39350
O1111       O  0.39974525  0.72838474  0.72443387    -0.40050
O1112       O  0.41720318  0.78782590  0.72363679    -0.40120
C1113       C  0.30709324  0.52781607  0.73133278    -0.12400
C1114       C  0.28147311  0.49670540  0.73184586     0.04600
C1115       C  0.28588399  0.96865397  0.71358015    -0.07690
C1116       C  0.31800148  0.96928166  0.69887587    -0.08430
C1117       C  0.34520765  0.49829454  0.70057856    -0.02990
C1118       C  0.33943405  0.52807949  0.71689419     0.03830
N1119       N  0.36678693  0.55812917  0.71986375     0.66340
H1120       H  0.30294833  0.55244817  0.74241186     0.15240
H1121       H  0.32087474  0.94746236  0.68537664     0.14950
N1122       N  0.25758525  0.94022796  0.70874521     0.74040
O1123       O  0.35558263  0.59129964  0.72527071    -0.39410
O1124       O  0.40183165  0.55007900  0.72153265    -0.39350
O1125       O  0.23324899  0.94723742  0.69280408    -0.40050
O1126       O  0.26505765  0.90572501  0.71334481    -0.40120
C1127       C  0.20837722  0.52577469  0.71782192    -0.12400
C1128       C  0.21126496  0.49525689  0.73437166     0.04600
C1129       C  0.18166758  0.96687752  0.73358663    -0.07690
C1130       C  0.15190571  0.97030070  0.71704648    -0.08430
C1131       C  0.15049588  0.50019263  0.70062761    -0.02990
C1132       C  0.17932147  0.52815670  0.70090190     0.03830
N1133       N  0.18133122  0.55759045  0.68315367     0.66340
H1134       H  0.23020110  0.54768795  0.71754241     0.15240
H1135       H  0.12990554  0.94852791  0.71667108     0.14950
N1136       N  0.18101800  0.93342705  0.74818923     0.74040
O1137       O  0.19133676  0.59099723  0.68886062    -0.39410
O1138       O  0.17996086  0.54880946  0.66147541    -0.39350
O1139       O  0.15268933  0.92789807  0.76156941    -0.40050
O1140       O  0.20201794  0.90536908  0.74299088    -0.40120
C1141       C  0.21562054  0.55644979  0.76834978    -0.12400
C1142       C  0.24785620  0.53170526  0.76711707     0.04600
C1143       C  0.27813370  0.53960154  0.78347867    -0.07690
C1144       C  0.27699792  0.57200151  0.79790126    -0.08430
C1145       C  0.24557397  0.59654047  0.79819162    -0.02990
C1146       C  0.21431955  0.58831357  0.78339420     0.03830
N1147       N  0.18095575  0.61199542  0.78316630     0.66340
H1148       H  0.18992170  0.55090959  0.75840571     0.15240
H1149       H  0.30079005  0.57708964  0.80978676     0.14950
N1150       N  0.31044037  0.51506624  0.78633134     0.74040
O1151       O  0.17135569  0.62871315  0.76423380    -0.39410
O1152       O  0.15694880  0.60910858  0.79972370    -0.39350
O1153       O  0.34278180  0.52753753  0.78021992    -0.40050
O1154       O  0.30908634  0.48978797  0.80229302    -0.40120
C1155       C  0.22356589  0.95961395  0.78581742    -0.12400
C1156       C  0.25126471  0.96070374  0.76755050     0.04600
C1157       C  0.28059810  0.93168099  0.76826090    -0.07690
C1158       C  0.27821525  0.90214468  0.78500656    -0.08430
C1159       C  0.24921602  0.90083428  0.80184442    -0.02990
C1160       C  0.22194091  0.93021650  0.80245334     0.03830
N1161       N  0.19310992  0.93160116  0.82036834     0.66340
H1162       H  0.20169246  0.98148856  0.78670643     0.15240
H1163       H  0.30024381  0.88034675  0.78531912     0.14950
N1164       N  0.31463365  0.93203753  0.75408423     0.74040
O1165       O  0.19370752  0.95813303  0.83549047    -0.39410
O1166       O  0.16331020  0.91169711  0.81808080    -0.39350
O1167       O  0.33966116  0.95718441  0.75780997    -0.40050
O1168       O  0.32491678  0.90160685  0.74390120    -0.40120
C1169       C  0.08774168  0.71601373  0.04979463    -0.12400
C1170       C  0.10585507  0.75026251  0.05597589     0.04600
C1171       C  0.09548398  0.78420442  0.04395052    -0.07690
C1172       C  0.06500229  0.78358165  0.02779583    -0.08430
C1173       C  0.04554140  0.74960709  0.02223155    -0.02990
C1174       C  0.05841109  0.71460334  0.03274789     0.03830
N1175       N  0.04089863  0.67789715  0.02786080     0.66340
H1176       H  0.09613184  0.68996128  0.05877954     0.15240
H1177       H  0.05766844  0.80972407  0.01863448     0.14950
N1178       N  0.11705536  0.81884069  0.04661231     0.74040
O1179       O  0.05280112  0.64803556  0.03810924    -0.39410
O1180       O  0.01237221  0.67495078  0.01438918    -0.39350
O1181       O  0.15295058  0.81795820  0.04466864    -0.40050
O1182       O  0.10026176  0.85079309  0.04632705    -0.40120
C1183       C  0.42695340  0.73725191  0.06141692    -0.12400
C1184       C  0.39305447  0.75600248  0.05600559     0.04600
C1185       C  0.39122810  0.77943125  0.03567568    -0.07690
C1186       C  0.42323470  0.78124215  0.02060903    -0.08430
C1187       C  0.45662294  0.75942418  0.02472316    -0.02990
C1188       C  0.45937308  0.74087119  0.04723881     0.03830
N1189       N  0.49455474  0.73553583  0.05947432     0.66340
H1190       H  0.42955311  0.72282959  0.07838714     0.15240
H1191       H  0.42079453  0.79716803  0.00418809     0.14950
N1192       N  0.35674296  0.79922916  0.02903119     0.74040
O1193       O  0.50025325  0.70424781  0.07012193    -0.39410
O1194       O  0.51113438  0.76502071  0.06723775    -0.39350
O1195       O  0.35810865  0.82603762  0.01408570    -0.40050
O1196       O  0.32448041  0.78718746  0.03560152    -0.40120
C1197       C  0.06439146  0.71807269  0.97457332    -0.12400
C1198       C  0.04219959  0.75074471  0.97882153     0.04600
C1199       C  0.05201383  0.78524049  0.96649247    -0.07690
C1200       C  0.07982873  0.78342258  0.94839573    -0.08430
C1201       C  0.10254643  0.75075725  0.94530180    -0.02990
C1202       C  0.09733551  0.71983853  0.96076667     0.03830
N1203       N  0.12902841  0.69604158  0.96712925     0.66340
H1204       H  0.05998764  0.69281621  0.98509171     0.15240
H1205       H  0.08516653  0.80823266  0.93740182     0.14950
N1206       N  0.03408430  0.82177095  0.97146739     0.74040
O1207       O  0.12313597  0.66449199  0.97738898    -0.39410
O1208       O  0.16133948  0.71161895  0.96946685    -0.39350
O1209       O  0.00892979  0.82525291  0.98730462    -0.40050
O1210       O  0.04217992  0.85078587  0.95911435    -0.40120
C1211       C  0.39390743  0.71883792  0.96343273    -0.12400
C1212       C  0.40045372  0.73961865  0.94261805     0.04600
C1213       C  0.43560313  0.75839236  0.93987398    -0.07690
C1214       C  0.46119960  0.75972680  0.95888797    -0.08430
C1215       C  0.45487195  0.74071463  0.98057306    -0.02990
C1216       C  0.42067931  0.71840345  0.98218358     0.03830
N1217       N  0.41172676  0.69624307  0.00293073     0.66340
H1218       H  0.36746033  0.70303187  0.96520534     0.15240
H1219       H  0.48489655  0.77818787  0.95638051     0.14950
N1220       N  0.44694239  0.77482579  0.91761644     0.74040
O1221       O  0.37755190  0.69319028  0.00976913    -0.39410
O1222       O  0.43687849  0.67562907  0.01256457    -0.39350
O1223       O  0.42759752  0.80125793  0.90823310    -0.40050
O1224       O  0.47946510  0.76710271  0.90926170    -0.40120
C1225       C  0.34962756  0.97769931  0.28089903    -0.12400
C1226       C  0.35072317  0.50701527  0.29765884     0.04600
C1227       C  0.32277904  0.53590658  0.29680729    -0.07690
C1228       C  0.29267435  0.53283798  0.28069295    -0.08430
C1229       C  0.28838138  0.50090587  0.26549248    -0.02990
C1230       C  0.32026874  0.97525134  0.26407330     0.03830
N1231       N  0.32519578  0.94790814  0.24542068     0.66340
H1232       H  0.37250586  0.95681046  0.28050203     0.15240
H1233       H  0.27082965  0.55473403  0.28106669     0.14950
N1234       N  0.32276550  0.56713809  0.31318821     0.74040
O1235       O  0.33245437  0.95961874  0.22475538    -0.39410
O1236       O  0.33292481  0.91362893  0.25061008    -0.39350
O1237       O  0.34738186  0.59324649  0.31113899    -0.40050
O1238       O  0.29386694  0.57283659  0.32605374    -0.40120
C1239       C  0.21813324  0.99478788  0.29222350    -0.12400
C1240       C  0.21431817  0.49478272  0.26717119     0.04600
C1241       C  0.17657149  0.48823922  0.25813219    -0.07690
C1242       C  0.14506551  0.48828329  0.27360147    -0.08430
C1243       C  0.14979692  0.49423165  0.29791345    -0.02990
C1244       C  0.18676593  0.99639423  0.30736863     0.03830
N1245       N  0.19314305  0.99989744  0.33243034     0.66340
H1246       H  0.24547830  0.99357385  0.30083482     0.15240
H1247       H  0.11663038  0.48398596  0.26650210     0.14950
N1248       N  0.16957449  0.47918583  0.23372943     0.74040
O1249       O  0.21873277  0.98012009  0.34238913    -0.39410
O1250       O  0.17801492  0.52703480  0.34374154    -0.39350
O1251       O  0.15443355  0.94756455  0.22852729    -0.40050
O1252       O  0.17236073  0.50457207  0.21793910    -0.40120
C1253       C  0.28401614  0.54558440  0.22308220    -0.12400
C1254       C  0.25049808  0.53739357  0.23625088     0.04600
C1255       C  0.22106252  0.56590099  0.23547711    -0.07690
C1256       C  0.22261747  0.59498407  0.21825619    -0.08430
C1257       C  0.25470499  0.60002362  0.20383584    -0.02990
C1258       C  0.28659463  0.57643370  0.20754108     0.03830
N1259       N  0.32166100  0.58251165  0.19519641     0.66340
H1260       H  0.30844795  0.52684501  0.22415417     0.15240
H1261       H  0.19908885  0.61501307  0.21686234     0.14950
N1262       N  0.19093069  0.56825849  0.25256084     0.74040
O1263       O  0.34918002  0.59847329  0.20569609    -0.39410
O1264       O  0.32702704  0.56697125  0.17531833    -0.39350
O1265       O  0.19913873  0.57540330  0.27387459    -0.40050
O1266       O  0.15704866  0.57361406  0.24561207    -0.40120
C1267       C  0.24413263  0.89382420  0.22728178    -0.12400
C1268       C  0.24806450  0.89911952  0.20291109     0.04600
C1269       C  0.25121261  0.93626552  0.19358667    -0.07690
C1270       C  0.25076890  0.96738671  0.20907038    -0.08430
C1271       C  0.24955640  0.96303741  0.23407865    -0.02990
C1272       C  0.24495081  0.92487316  0.24299032     0.03830
N1273       N  0.23902845  0.91682691  0.26766777     0.66340
H1274       H  0.24087339  0.86511971  0.23426007     0.15240
H1275       H  0.25039217  0.99505727  0.20077121     0.14950
N1276       N  0.25479737  0.94323033  0.16847733     0.74040
O1277       O  0.21001697  0.89796847  0.27390882    -0.39410
O1278       O  0.26562378  0.92172691  0.28242647    -0.39350
O1279       O  0.23647498  0.92342778  0.15365080    -0.40050
O1280       O  0.27381609  0.97150173  0.16111894    -0.40120
C1281       C  0.75031833  0.49876247  0.25073783    -0.02620
C1282       C  0.97964437  0.24923786  0.00250139     0.00430
C1283       C  0.51935281  0.25044701  0.00131274     0.00430
C1284       C  0.74818885  0.49544075  0.75025133    -0.02620
C1285       C  0.50104643  0.25203889  0.75086455    -0.02620
C1286       C  0.75010098  0.47749193  0.00103328     0.00430
C1287       C  0.75049988  0.01658011  0.00067804     0.00430
N1288       N  0.73264411  0.32974208  0.89901222    -0.06250
N1289       N  0.72002172  0.35529903  0.91430867    -0.58370
N1290       N  0.76915709  0.33070349  0.84505036    -0.05930
N1291       N  0.78193795  0.35488001  0.82894090    -0.60500
N1292       N  0.73162700  0.33093951  0.84535750    -0.05530
N1293       N  0.71807195  0.35537436  0.82970211    -0.58350
N1294       N  0.77021445  0.32873127  0.89910346    -0.05210
N1295       N  0.78386206  0.35358370  0.91450494    -0.60850
C1296       C  0.75226124  0.36997427  0.92380721     0.95920
C1297       C  0.74967898  0.37000187  0.81956180     0.95700
N1298       N  0.83170462  0.22945564  0.84184142    -0.06440
N1299       N  0.85447189  0.21784083  0.82458675    -0.58950
N1300       N  0.83340161  0.26260317  0.89775595    -0.04560
N1301       N  0.85660028  0.27411255  0.91476287    -0.60200
N1302       N  0.83324133  0.22500685  0.89662012    -0.06470
N1303       N  0.85618590  0.21023316  0.91287663    -0.59220
N1304       N  0.83207782  0.26698601  0.84319789    -0.04200
N1305       N  0.85497767  0.28163143  0.82700791    -0.60290
Mn1306     Mn  0.80203752  0.29782056  0.87143314     1.18440
C1307       C  0.86825586  0.25078189  0.81524612     0.98010
C1308       C  0.87067150  0.24122138  0.92399748     0.98670
N1309       N  0.66737396  0.26846967  0.84435145    -0.06490
N1310       N  0.64564114  0.28225931  0.82714913    -0.62800
N1311       N  0.66797641  0.22926495  0.89898980    -0.05290
N1312       N  0.64513290  0.21687144  0.91602659    -0.63470
N1313       N  0.66843057  0.26690107  0.89885107    -0.05990
N1314       N  0.64610021  0.28080112  0.91556502    -0.63060
N1315       N  0.66684700  0.23091430  0.84416448    -0.04890
N1316       N  0.64491872  0.21834021  0.82686726    -0.63750
Mn1317     Mn  0.69931803  0.29950015  0.87189902     1.10660
C1318       C  0.63212346  0.25056847  0.81621715     0.99230
C1319       C  0.63190912  0.24941357  0.92632281     0.99300
N1320       N  0.76913263  0.16151666  0.89535499    -0.06000
N1321       N  0.78239229  0.13585262  0.91056008    -0.61380
N1322       N  0.72904934  0.16669334  0.84208459    -0.05320
N1323       N  0.71491961  0.14352655  0.82584295    -0.58100
N1324       N  0.76659875  0.16630256  0.84141179    -0.06630
N1325       N  0.77864549  0.14272582  0.82482137    -0.60940
N1326       N  0.73157440  0.16235571  0.89586543    -0.05620
N1327       N  0.71865329  0.13695247  0.91110653    -0.58130
Mn1328     Mn  0.80099362  0.19491838  0.86874221     1.20190
Mn1329     Mn  0.69798860  0.19664560  0.87048921     1.10090
Cl1330     Cl  0.75010774  0.24716084  0.87080221    -0.86100
C1331       C  0.75049293  0.12094200  0.92045849     0.96230
C1332       C  0.74614978  0.12895985  0.81504505     0.96030
N1333       N  0.66918667  0.22660273  0.15889102    -0.06250
N1334       N  0.64745125  0.21190790  0.17567699    -0.58370
N1335       N  0.66703046  0.26729790  0.10500754    -0.05930
N1336       N  0.64542454  0.28113012  0.08783618    -0.60500
N1337       N  0.66804754  0.22972270  0.10408647    -0.05530
N1338       N  0.64724095  0.21733391  0.08614969    -0.58350
N1339       N  0.66792730  0.26414484  0.15950400    -0.05210
N1340       N  0.64501354  0.27578110  0.17659099    -0.60850
C1341       C  0.63300231  0.24291577  0.18676933     0.95920
C1342       C  0.63351333  0.24972800  0.07599525     0.95700
N1343       N  0.76610055  0.33382719  0.10593066    -0.06440
N1344       N  0.77875434  0.35917650  0.09051045    -0.58950
N1345       N  0.73000329  0.32870335  0.16049031    -0.04560
N1346       N  0.71677373  0.35111851  0.17736759    -0.60200
N1347       N  0.76752864  0.32986425  0.15993823    -0.06470
N1348       N  0.78060801  0.35334693  0.17630984    -0.59220
N1349       N  0.72858873  0.33339379  0.10621446    -0.04200
N1350       N  0.71492235  0.35856561  0.09090461    -0.60290
Mn1351     Mn  0.69742712  0.29906582  0.13279334     1.18440
C1352       C  0.74658779  0.37458121  0.08132736     0.98010
C1353       C  0.74866890  0.36576505  0.18729463     0.98670
N1354       N  0.73242802  0.16579439  0.10314116    -0.06490
N1355       N  0.71965737  0.14146493  0.08710491    -0.62800
N1356       N  0.77125344  0.16574562  0.15721544    -0.05290
N1357       N  0.78529209  0.14366128  0.17407462    -0.63470
N1358       N  0.73372479  0.16496017  0.15753870    -0.05990
N1359       N  0.72147215  0.14247234  0.17472014    -0.63060
N1360       N  0.76994455  0.16645337  0.10304253    -0.04890
N1361       N  0.78336588  0.14254206  0.08702204    -0.63750
Mn1362     Mn  0.69988931  0.19599526  0.13081128     1.10660
C1363       C  0.75176615  0.12728570  0.07700109     0.99230
C1364       C  0.75395565  0.12939880  0.18493077     0.99300
N1365       N  0.83224888  0.26801906  0.15768586    -0.06000
N1366       N  0.85504088  0.28138335  0.17429576    -0.61380
N1367       N  0.83081512  0.23303776  0.10266122    -0.05320
N1368       N  0.85200434  0.22136054  0.08477088    -0.58100
N1369       N  0.82943054  0.27063030  0.10315360    -0.06630
N1370       N  0.84938039  0.28528847  0.08551758    -0.60940
N1371       N  0.83347194  0.23048388  0.15723195    -0.05620
N1372       N  0.85724093  0.21748532  0.17357886    -0.58130
Mn1373     Mn  0.79966392  0.30119361  0.13166593     1.20190
Mn1374     Mn  0.80233662  0.19818103  0.13000226     1.10090
Cl1375     Cl  0.74980830  0.24858905  0.13122789    -0.86100
C1376       C  0.87050182  0.24964019  0.18404556     0.96230
C1377       C  0.86282846  0.25421965  0.07401918     0.96030
N1378       N  0.58059075  0.02017249  0.65719970    -0.06250
N1379       N  0.60424786  0.03297733  0.67355706    -0.58370
N1380       N  0.58032940  0.48532150  0.60205791    -0.05930
N1381       N  0.60341116  0.47397010  0.58490042    -0.60500
N1382       N  0.57949033  0.02292720  0.60299147    -0.05530
N1383       N  0.60172851  0.03791554  0.58658255    -0.58350
N1384       N  0.58113141  0.48260695  0.65658473    -0.05210
N1385       N  0.60512903  0.46904134  0.67258083    -0.60850
C1386       C  0.61934297  0.00078818  0.68300591     0.95920
C1387       C  0.61623672  0.00716267  0.57536021     0.95700
N1388       N  0.97958877  0.41898495  0.60231199    -0.06440
N1389       N  0.96659629  0.39365216  0.58696530    -0.58950
N1390       N  0.51776357  0.41857154  0.65643146    -0.04560
N1391       N  0.53109280  0.39533444  0.67300235    -0.60200
N1392       N  0.98017591  0.41885495  0.65672865    -0.06470
N1393       N  0.96722573  0.39610395  0.67358868    -0.59220
N1394       N  0.51715222  0.41947348  0.60205105    -0.04200
N1395       N  0.53030891  0.39459262  0.58648316    -0.60290
Mn1396     Mn  0.54989252  0.45072572  0.62916821     1.18440
C1397       C  0.99851926  0.37855193  0.57717809     0.98010
C1398       C  0.99925519  0.38203052  0.68378057     0.98670
N1399       N  0.51551227  0.08556898  0.60453173    -0.06490
N1400       N  0.52856117  0.10820635  0.58772125    -0.62800
N1401       N  0.97904796  0.08310353  0.65925102    -0.05290
N1402       N  0.96649951  0.10550901  0.67641436    -0.63470
N1403       N  0.51657332  0.08317291  0.65885034    -0.05990
N1404       N  0.53021739  0.10564329  0.67558992    -0.63060
N1405       N  0.97801451  0.08585332  0.60471234    -0.04890
N1406       N  0.96481455  0.10900450  0.58808840    -0.63750
Mn1407     Mn  0.54864721  0.05359940  0.63092290     1.10660
C1408       C  0.99668910  0.12261595  0.57747926     0.99230
C1409       C  0.99874062  0.11921174  0.68663020     0.99300
N1410       N  0.91545737  0.48142681  0.65710413    -0.06000
N1411       N  0.89127824  0.46749174  0.67279981    -0.61380
N1412       N  0.91452816  0.02123067  0.60385171    -0.05320
N1413       N  0.89012922  0.03517891  0.58824105    -0.58100
N1414       N  0.91474865  0.48359922  0.60300271    -0.06630
N1415       N  0.89040361  0.47132775  0.58676338    -0.60940
N1416       N  0.91546302  0.01899759  0.65779991    -0.05620
N1417       N  0.89131360  0.03139863  0.67393783    -0.58130
Mn1418     Mn  0.94686129  0.44997838  0.62967385     1.20190
Mn1419     Mn  0.94607099  0.05306590  0.63142466     1.10090
Cl1420     Cl  0.99783401  0.00179084  0.63020302    -0.86100
C1421       C  0.87682262  0.99899158  0.68337487     0.96230
C1422       C  0.87512690  0.00384943  0.57771274     0.96030
N1423       N  0.97637649  0.41718752  0.34135692    -0.06250
N1424       N  0.96167676  0.39578093  0.32444274    -0.58370
N1425       N  0.51591606  0.41288539  0.39485717    -0.05930
N1426       N  0.52930086  0.38913394  0.41098424    -0.60500
N1427       N  0.97838047  0.41389156  0.39552297    -0.05530
N1428       N  0.96547658  0.39043081  0.41204962    -0.58350
N1429       N  0.51386389  0.41607471  0.34057303    -0.05210
N1430       N  0.52538927  0.39405185  0.32300356    -0.60850
C1431       C  0.99250969  0.38166904  0.31301778     0.95920
C1432       C  0.99767143  0.37545922  0.42164984     0.95700
N1433       N  0.58415561  0.01081842  0.39624721    -0.06440
N1434       N  0.60963971  0.02190290  0.41203444    -0.58950
N1435       N  0.58009101  0.47633250  0.34097954    -0.04560
N1436       N  0.60201670  0.46300408  0.32385820    -0.60200
N1437       N  0.58166696  0.01386283  0.34168542    -0.06470
N1438       N  0.60451025  0.02685494  0.32493186    -0.59220
N1439       N  0.58266720  0.47321514  0.39548690    -0.04200
N1440       N  0.60694602  0.45803776  0.41087023    -0.60290
Mn1441     Mn  0.54880438  0.44385577  0.36796963     1.18440
C1442       C  0.62358370  0.98879444  0.42107802     0.98010
C1443       C  0.61657890  0.99486783  0.31376707     0.98670
N1444       N  0.91665544  0.48104172  0.39747190    -0.06490
N1445       N  0.89256096  0.46881139  0.41383223    -0.62800
N1446       N  0.91762327  0.02085318  0.34373787    -0.05290
N1447       N  0.89524490  0.03592177  0.32739549    -0.63470
N1448       N  0.91591222  0.48333225  0.34309936    -0.05990
N1449       N  0.89258626  0.47208015  0.32611984    -0.63060
N1450       N  0.91880471  0.01859296  0.39789425    -0.04890
N1451       N  0.89649702  0.03253898  0.41458531    -0.63750
Mn1452     Mn  0.94595018  0.44802837  0.36947590     1.10660
C1453       C  0.88047897  0.00125839  0.42460035     0.99230
C1454       C  0.87992649  0.00521344  0.31648139     0.99300
N1455       N  0.52147782  0.07979808  0.34342631    -0.06000
N1456       N  0.53538321  0.10252294  0.32686153    -0.61380
N1457       N  0.98488088  0.07980701  0.39794757    -0.05320
N1458       N  0.97214316  0.10410773  0.41387936    -0.58100
N1459       N  0.52243197  0.07912412  0.39789541    -0.06630
N1460       N  0.53584530  0.10349357  0.41381292    -0.60940
N1461       N  0.98397376  0.08159857  0.34375132    -0.05620
N1462       N  0.97157861  0.10593853  0.32755383    -0.58130
Mn1463     Mn  0.55328946  0.04658438  0.37000697     1.20190
Mn1464     Mn  0.95071951  0.05084087  0.37086676     1.10090
Cl1465     Cl  0.99969974  0.99732144  0.36984798    -0.86100
C1466       C  0.00392829  0.11821685  0.31693722     0.96230
C1467       C  0.00398958  0.11872271  0.42380189     0.96030
C1468       C  0.49636920  0.26886852  0.50027286     0.00430
C1469       C  0.50506387  0.23058713  0.49984399     0.00430
C1470       C  0.76751433  0.51436185  0.49918736     0.00430
C1471       C  0.72796224  0.50980214  0.49855956     0.00430
C1472       C  0.50010360  0.24806685  0.25039473    -0.02620
C1473       C  0.52184002  0.34897222  0.27855831    -0.12400
C1474       C  0.99111814  0.35218849  0.29426143     0.04600
C1475       C  0.96134924  0.32534232  0.29286590    -0.07690
C1476       C  0.96522397  0.29374555  0.27801332    -0.08430
C1477       C  0.49808154  0.28742400  0.26389770    -0.02990
C1478       C  0.52468004  0.31848917  0.26245371     0.03830
N1479       N  0.55368306  0.32126259  0.24462005     0.66340
H1480       H  0.54357634  0.37100155  0.27843175     0.15240
H1481       H  0.94263232  0.27278031  0.27829033     0.14950
N1482       N  0.92776599  0.32839529  0.30719695     0.74040
O1483       O  0.58745952  0.32934173  0.25063307    -0.39410
O1484       O  0.54400264  0.32602819  0.22327519    -0.39350
O1485       O  0.90389896  0.35460529  0.30297123    -0.40050
O1486       O  0.91809622  0.30077211  0.32029407    -0.40120
C1487       C  0.50964223  0.14452408  0.27637773    -0.12400
C1488       C  0.00526334  0.15094303  0.30063181     0.04600
C1489       C  0.00233689  0.18859476  0.30910972    -0.07690
C1490       C  0.00230071  0.21889285  0.29288156    -0.08430
C1491       C  0.50279961  0.21326336  0.26795199    -0.02990
C1492       C  0.50868050  0.17479740  0.25999075     0.03830
N1493       N  0.51591538  0.16573364  0.23562821     0.66340
H1494       H  0.51337560  0.11554152  0.27001237     0.15240
H1495       H  0.00303981  0.24699901  0.30052196     0.14950
N1496       N  0.99959291  0.19690564  0.33408913     0.74040
O1497       O  0.54683104  0.14945105  0.23013303    -0.39410
O1498       O  0.98925899  0.16690941  0.22061056    -0.39350
O1499       O  0.51764527  0.17720362  0.34915629    -0.40050
O1500       O  0.98170853  0.22618020  0.34102648    -0.40120
C1501       C  0.53710890  0.17037062  0.44664023    -0.12400
C1502       C  0.00361463  0.14960628  0.44198428     0.04600
C1503       C  0.97036173  0.15855785  0.45502517    -0.07690
C1504       C  0.97199024  0.18584159  0.47302345    -0.08430
C1505       C  0.50508839  0.20717999  0.47759939    -0.02990
C1506       C  0.53830426  0.19942999  0.46398152     0.03830
N1507       N  0.57367855  0.21936813  0.46781868     0.66340
H1508       H  0.56258577  0.16414023  0.43650051     0.15240
H1509       H  0.94687904  0.18996289  0.48386146     0.14950
N1510       N  0.93466672  0.13988917  0.45069311     0.74040
O1511       O  0.60507851  0.20342132  0.46299963    -0.39410
O1512       O  0.57379849  0.25403653  0.47383014    -0.39350
O1513       O  0.91887127  0.12132391  0.46717444    -0.40050
O1514       O  0.91507397  0.14956646  0.43287039    -0.40120
C1515       C  0.52528191  0.32115092  0.47704588    -0.12400
C1516       C  0.49651615  0.29324227  0.47848358     0.04600
C1517       C  0.96823462  0.29196899  0.46043921    -0.07690
C1518       C  0.96951744  0.31904303  0.44196626    -0.08430
C1519       C  0.99834842  0.34678199  0.44084417    -0.02990
C1520       C  0.52696718  0.34717234  0.45836451     0.03830
N1521       N  0.55719290  0.37470263  0.45806911     0.66340
H1522       H  0.54723060  0.32260855  0.49053935     0.15240
H1523       H  0.94752942  0.31872074  0.42844119     0.14950
N1524       N  0.93761485  0.26465281  0.46061213     0.74040
O1525       O  0.56030706  0.39809873  0.47495925    -0.39410
O1526       O  0.58508579  0.36993231  0.44425158    -0.39350
O1527       O  0.92095303  0.25605526  0.47965370    -0.40050
O1528       O  0.92411808  0.25239364  0.44130991    -0.40120
C1529       C  0.65602650  0.96153572  0.45705927    -0.12400
C1530       C  0.65617452  0.98716712  0.43788461     0.04600
C1531       C  0.68614074  0.51375835  0.43602288    -0.07690
C1532       C  0.71125372  0.51845985  0.45506428    -0.08430
C1533       C  0.70890025  0.49619083  0.47578329    -0.02990
C1534       C  0.68267276  0.96507800  0.47582118     0.03830
N1535       N  0.68145071  0.43832424  0.49524949     0.66340
H1536       H  0.63404886  0.93982891  0.45791803     0.15240
H1537       H  0.73109042  0.54132445  0.45375397     0.14950
N1538       N  0.69139426  0.03633111  0.41492437     0.74040
O1539       O  0.65136779  0.91973864  0.49957040    -0.39410
O1540       O  0.71132149  0.43065103  0.50686937    -0.39350
O1541       O  0.68687114  0.02129862  0.39479847    -0.40050
O1542       O  0.70548208  0.56947396  0.41618062    -0.40120
C1543       C  0.80915860  0.47554382  0.47325068    -0.12400
C1544       C  0.79156695  0.51104969  0.47740654     0.04600
C1545       C  0.80316427  0.04340196  0.46384336    -0.07690
C1546       C  0.83196379  0.03856383  0.44674264    -0.08430
C1547       C  0.85043657  0.00336101  0.44319692    -0.02990
C1548       C  0.83908437  0.47149557  0.45691566     0.03830
N1549       N  0.85930537  0.43578055  0.45595755     0.66340
H1550       H  0.80132433  0.45123917  0.48413658     0.15240
H1551       H  0.84035415  0.06285796  0.43605633     0.14950
N1552       N  0.78658371  0.08113295  0.46686625     0.74040
O1553       O  0.89517946  0.93533191  0.45819301    -0.39410
O1554       O  0.84119612  0.40470267  0.45758932    -0.39350
O1555       O  0.75751714  0.08649275  0.47963260    -0.40050
O1556       O  0.80009445  0.60943463  0.45577799    -0.40120
C1557       C  0.63410767  0.51827745  0.53369635    -0.12400
C1558       C  0.64565273  0.00993696  0.55679663     0.04600
C1559       C  0.68494228  0.01020377  0.56221986    -0.07690
C1560       C  0.71153943  0.01329407  0.54364827    -0.08430
C1561       C  0.70052175  0.51659961  0.51957497    -0.02990
C1562       C  0.66084924  0.52395243  0.51548584     0.03830
N1563       N  0.64743789  0.54040230  0.49366051     0.66340
H1564       H  0.60398701  0.52242825  0.53007400     0.15240
H1565       H  0.74051439  0.01324823  0.54906173     0.14950
N1566       N  0.69862969  0.00862900  0.58635471     0.74040
O1567       O  0.61515690  0.53120094  0.48547866    -0.39410
O1568       O  0.66439973  0.06905605  0.48505677    -0.39350
O1569       O  0.68077049  0.49025757  0.60208268    -0.40050
O1570       O  0.72968297  0.02464285  0.59188754    -0.40120
C1571       C  0.79583611  0.97866922  0.53357575    -0.12400
C1572       C  0.79182175  0.51347567  0.52114097     0.04600
C1573       C  0.81588050  0.54421943  0.52756413    -0.07690
C1574       C  0.84248451  0.53986665  0.54585569    -0.08430
C1575       C  0.84545045  0.00584087  0.55884107    -0.02990
C1576       C  0.82045842  0.97528741  0.55328199     0.03830
N1577       N  0.81758958  0.94211306  0.56824851     0.66340
H1578       H  0.77784189  0.95477140  0.52872865     0.15240
H1579       H  0.86099178  0.56374808  0.54999592     0.14950
N1580       N  0.81373271  0.58047999  0.51605458     0.74040
O1581       O  0.80902970  0.91011878  0.55940442    -0.39410
O1582       O  0.81581369  0.44613554  0.59045400    -0.39350
O1583       O  0.78788190  0.10351605  0.52223262    -0.40050
O1584       O  0.84296132  0.59330687  0.50567248    -0.40120
C1585       C  0.96902813  0.19949916  0.53243248    -0.12400
C1586       C  0.50452559  0.20737773  0.52201811     0.04600
C1587       C  0.53697542  0.18683740  0.52974957    -0.07690
C1588       C  0.53322259  0.15952753  0.54773017    -0.08430
C1589       C  0.99767053  0.15109184  0.55793244    -0.02990
C1590       C  0.96499075  0.17101779  0.54978013     0.03830
N1591       N  0.92735745  0.16152544  0.55776795     0.66340
H1592       H  0.94371041  0.21356626  0.52570487     0.15240
H1593       H  0.55860338  0.14455297  0.55364391     0.14950
N1594       N  0.57390239  0.19281727  0.51948172     0.74040
O1595       O  0.90494156  0.18782728  0.56415334    -0.39410
O1596       O  0.91384899  0.12891249  0.55318892    -0.39350
O1597       O  0.58825499  0.22583989  0.51929317    -0.40050
O1598       O  0.59500763  0.16450142  0.51490160    -0.40120
C1599       C  0.96363911  0.33815881  0.54815614    -0.12400
C1600       C  0.99817800  0.34690418  0.55954046     0.04600
C1601       C  0.53129138  0.32594688  0.55324406    -0.07690
C1602       C  0.52929005  0.29865631  0.53504069    -0.08430
C1603       C  0.49502278  0.29098455  0.52305835    -0.02990
C1604       C  0.96179643  0.31073752  0.53013827     0.03830
N1605       N  0.92585722  0.30387718  0.51902214     0.66340
H1606       H  0.93778579  0.35340496  0.55282452     0.15240
H1607       H  0.55520121  0.28471833  0.52944203     0.14950
N1608       N  0.56719288  0.33193895  0.56488419     0.74040
O1609       O  0.90527087  0.27688090  0.52652351    -0.39410
O1610       O  0.91080873  0.32993283  0.50663508    -0.39350
O1611       O  0.56999048  0.32638262  0.58692577    -0.40050
O1612       O  0.59721179  0.33564859  0.55274469    -0.40120
C1613       C  0.60534578  0.23970135  0.22719606    -0.12400
C1614       C  0.59995221  0.24109970  0.20267059     0.04600
C1615       C  0.56276717  0.24149283  0.19338686    -0.07690
C1616       C  0.53182405  0.24213288  0.20891628    -0.08430
C1617       C  0.53608524  0.24482908  0.23390704    -0.02990
C1618       C  0.57422216  0.24104404  0.24293433     0.03830
N1619       N  0.58217615  0.23622482  0.26773307     0.66340
H1620       H  0.63409742  0.23795154  0.23424213     0.15240
H1621       H  0.50433960  0.23903298  0.20066439     0.14950
N1622       N  0.55556292  0.24149691  0.16822182     0.74040
O1623       O  0.60179527  0.20793527  0.27449615    -0.39050
O1624       O  0.57583887  0.26294775  0.28216608    -0.39350
O1625       O  0.57482932  0.22055905  0.15451472    -0.40050
O1626       O  0.52713885  0.25933113  0.15994808    -0.40120
C1627       C  0.90307119  0.22112434  0.21900150    -0.12400
C1628       C  0.90113656  0.25027076  0.20202084     0.04600
C1629       C  0.92776820  0.28030255  0.20295063    -0.07690
C1630       C  0.95657374  0.27944686  0.21999121    -0.08430
C1631       C  0.96199646  0.24805561  0.23555101    -0.02990
C1632       C  0.93182256  0.22044574  0.23643376     0.03830
N1633       N  0.92780705  0.19305279  0.25520326     0.66340
H1634       H  0.88105192  0.19938281  0.21929197     0.15240
H1635       H  0.97728577  0.30225319  0.21959900     0.14950
N1636       N  0.92810892  0.31040953  0.18562865     0.74040
O1637       O  0.92097496  0.20461903  0.27593281    -0.39410
O1638       O  0.92090026  0.15856630  0.25021079    -0.39350
O1639       O  0.93324717  0.34455016  0.19210253    -0.40050
O1640       O  0.93034258  0.30232072  0.16387877    -0.40120
C1641       C  0.78418764  0.05539245  0.03040545    -0.12400
C1642       C  0.74941806  0.03973229  0.02290522     0.04600
C1643       C  0.71512515  0.05119556  0.03441065    -0.07690
C1644       C  0.71724322  0.07967166  0.05205623    -0.08430
C1645       C  0.75198911  0.09682288  0.05856992    -0.02990
C1646       C  0.78595932  0.08371563  0.04781017     0.03830
N1647       N  0.82247843  0.09966569  0.05349536     0.66340
H1648       H  0.81040494  0.04666459  0.02193020     0.15240
H1649       H  0.69127266  0.08901108  0.06066260     0.14950
N1650       N  0.67814106  0.03537491  0.02849861     0.74040
O1651       O  0.84945040  0.07781493  0.05963656    -0.39410
O1652       O  0.82990460  0.13368161  0.04760255    -0.39350
O1653       O  0.67420802  0.01113204  0.01219231    -0.40050
O1654       O  0.64875164  0.04561978  0.03977642    -0.40120
C1655       C  0.77598070  0.45602559  0.04026877    -0.12400
C1656       C  0.74618052  0.45528979  0.02362770     0.04600
C1657       C  0.71499962  0.43032180  0.02759898    -0.07690
C1658       C  0.71496512  0.40621026  0.04738400    -0.08430
C1659       C  0.74600766  0.40492586  0.06298820    -0.02990
C1660       C  0.77657508  0.43089906  0.05971478     0.03830
N1661       N  0.80828618  0.43235527  0.07584325     0.66340
H1662       H  0.79970962  0.47535876  0.03766998     0.15240
H1663       H  0.69123725  0.38675824  0.04977833     0.14950
N1664       N  0.68329947  0.42819604  0.01163115     0.74040
O1665       O  0.84170048  0.43714554  0.06802525    -0.39410
O1666       O  0.80252175  0.43426261  0.09788623    -0.39350
O1667       O  0.68597088  0.40712958  0.99359750    -0.40050
O1668       O  0.65042980  0.43624202  0.01930429    -0.40120
C1669       C  0.71894710  0.06232226  0.97358917    -0.12400
C1670       C  0.75080983  0.03939004  0.97818983     0.04600
C1671       C  0.78236532  0.04162640  0.96256876    -0.07690
C1672       C  0.78161509  0.06770792  0.94349169    -0.08430
C1673       C  0.75007951  0.09182849  0.93973513    -0.02990
C1674       C  0.71827770  0.08821924  0.95485123     0.03830
N1675       N  0.68661248  0.11365295  0.95311947     0.66340
H1676       H  0.69475310  0.06187660  0.98536821     0.15240
H1677       H  0.80621167  0.06977290  0.93194645     0.14950
N1678       N  0.81593918  0.01914196  0.96624905     0.74040
O1679       O  0.65294757  0.10092232  0.95408213    -0.39410
O1680       O  0.69246979  0.14903212  0.95491040    -0.39350
O1681       O  0.82852061  0.99876197  0.94955262    -0.40050
O1682       O  0.83756674  0.02667884  0.98348845    -0.40120
C1683       C  0.72651117  0.45705152  0.96101554    -0.12400
C1684       C  0.75415629  0.45440033  0.97898496     0.04600
C1685       C  0.78284548  0.42613596  0.97729881    -0.07690
C1686       C  0.78195137  0.39977324  0.95874793    -0.08430
C1687       C  0.75325231  0.40101083  0.94151178    -0.02990
C1688       C  0.72584024  0.43083935  0.94214139     0.03830
N1689       N  0.69762706  0.43527301  0.92380778     0.66340
H1690       H  0.70447910  0.47870735  0.96218697     0.15240
H1691       H  0.80349598  0.37753118  0.95811562     0.14950
N1692       N  0.81275460  0.42330584  0.99454475     0.74040
O1693       O  0.66476926  0.44771678  0.92881369    -0.39410
O1694       O  0.70703199  0.43218815  0.90230649    -0.39350
O1695       O  0.82118825  0.39127785  0.00337743    -0.40050
O1696       O  0.83333543  0.45187999  0.99920049    -0.40120
C1697       C  0.97268165  0.18669853  0.73731045    -0.12400
C1698       C  0.00260212  0.21359504  0.73650453     0.04600
C1699       C  0.53455574  0.20390640  0.72187239    -0.07690
C1700       C  0.53265710  0.17267564  0.70642366    -0.08430
C1701       C  0.00004169  0.14968314  0.70498849    -0.02990
C1702       C  0.97024602  0.15634942  0.72122175     0.03830
N1703       N  0.93713614  0.13268718  0.72196372     0.66340
H1704       H  0.95029985  0.18876738  0.75028085     0.15240
H1705       H  0.55677274  0.16718967  0.69490984     0.14950
N1706       N  0.56916838  0.22560880  0.72206737     0.74040
O1707       O  0.92728530  0.11832397  0.74155531    -0.39410
O1708       O  0.91260323  0.13590827  0.70568757    -0.39350
O1709       O  0.59713746  0.21313145  0.73390851    -0.40050
O1710       O  0.57537304  0.24934019  0.70566118    -0.40120
C1711       C  0.49818946  0.28146981  0.70836738    -0.12400
C1712       C  0.99969326  0.28710264  0.73329716     0.04600
C1713       C  0.99746461  0.32585255  0.74121201    -0.07690
C1714       C  0.99757333  0.35617809  0.72479040    -0.08430
C1715       C  0.99904656  0.34947840  0.70038062    -0.02990
C1716       C  0.49911446  0.31161472  0.69201705     0.03830
N1717       N  0.50022594  0.30283112  0.66704574     0.66340
H1718       H  0.49500058  0.25342309  0.70083087     0.15240
H1719       H  0.99613983  0.38532645  0.73121547     0.14950
N1720       N  0.99292675  0.33525974  0.76570766     0.74040
O1721       O  0.51659013  0.27275921  0.65997578    -0.39410
O1722       O  0.48237846  0.32306734  0.65216295    -0.39350
O1723       O  0.02133145  0.34721237  0.77728253    -0.40050
O1724       O  0.95986853  0.34286067  0.77323426    -0.40120
C1725       C  0.56670975  0.27928269  0.76500846    -0.12400
C1726       C  0.53803854  0.25085823  0.76648313     0.04600
C1727       C  0.54474813  0.21991980  0.78257157    -0.07690
C1728       C  0.57614300  0.22046089  0.79775661    -0.08430
C1729       C  0.60240915  0.25046183  0.79752638    -0.02990
C1730       C  0.59854774  0.27959851  0.78031452     0.03830
N1731       N  0.62723799  0.30864367  0.77737198     0.66340
H1732       H  0.56539285  0.30103994  0.75147346     0.15240
H1733       H  0.57931129  0.19730338  0.81040286     0.14950
N1734       N  0.51987628  0.18752264  0.78405340     0.74040
O1735       O  0.61809985  0.34135951  0.76974183    -0.39410
O1736       O  0.66218332  0.30023759  0.77918083    -0.39350
O1737       O  0.52946820  0.15719264  0.77353203    -0.40050
O1738       O  0.49681558  0.18516307  0.80114936    -0.40120
C1739       C  0.96881762  0.26199341  0.79204642    -0.12400
C1740       C  0.96471805  0.25556816  0.76730932     0.04600
C1741       C  0.92636808  0.25417521  0.75860543    -0.07690
C1742       C  0.89556401  0.25110054  0.77453113    -0.08430
C1743       C  0.90124681  0.25263940  0.79906263    -0.02990
C1744       C  0.93813813  0.25978728  0.80789190     0.03830
N1745       N  0.94524241  0.26472955  0.83287805     0.66340
H1746       H  0.99625930  0.26853660  0.79969146     0.15240
H1747       H  0.86679785  0.24844408  0.76763588     0.14950
N1748       N  0.91785522  0.25566192  0.73378255     0.74040
O1749       O  0.92825906  0.24427087  0.84799231    -0.39410
O1750       O  0.97135471  0.28693515  0.83980941    -0.39350
O1751       O  0.89974398  0.22838235  0.72443273    -0.40050
O1752       O  0.91720013  0.28782402  0.72363517    -0.40120
C1753       C  0.80709809  0.02781257  0.73133306    -0.12400
C1754       C  0.78147837  0.99670155  0.73184599     0.04600
C1755       C  0.78587537  0.46865805  0.71357996    -0.07690
C1756       C  0.81799201  0.46928577  0.69887484    -0.08430
C1757       C  0.84521419  0.99829092  0.70057973    -0.02990
C1758       C  0.83943957  0.02807611  0.71689503     0.03830
N1759       N  0.86679206  0.05812610  0.71986485     0.66340
H1760       H  0.80295219  0.05244493  0.74241175     0.15240
H1761       H  0.82086408  0.44746701  0.68537518     0.14950
N1762       N  0.75757508  0.44023358  0.70874501     0.74040
O1763       O  0.85558736  0.09129621  0.72527233    -0.39410
O1764       O  0.90183690  0.05007637  0.72153350    -0.39350
O1765       O  0.73324044  0.44724331  0.69280297    -0.40050
O1766       O  0.76504385  0.40573059  0.71334672    -0.40120
C1767       C  0.70838313  0.02576974  0.71782001    -0.12400
C1768       C  0.71127028  0.99525223  0.73436998     0.04600
C1769       C  0.68166063  0.46688185  0.73358900    -0.07690
C1770       C  0.65189941  0.47030449  0.71704826    -0.08430
C1771       C  0.65050116  0.00018862  0.70062639    -0.02990
C1772       C  0.67932718  0.02815215  0.70090027     0.03830
N1773       N  0.68133688  0.05758590  0.68315204     0.66340
H1774       H  0.73020715  0.04768286  0.71754044     0.15240
H1775       H  0.62989923  0.44853171  0.71667279     0.14950
N1776       N  0.68100943  0.43343300  0.74819290     0.74040
O1777       O  0.69134287  0.09099257  0.68885892    -0.39410
O1778       O  0.67996591  0.04880495  0.66147378    -0.39350
O1779       O  0.65268165  0.42790819  0.76157446    -0.40050
O1780       O  0.70200598  0.40537243  0.74299463    -0.40120
C1781       C  0.71562132  0.05644606  0.76834716    -0.12400
C1782       C  0.74785798  0.03170254  0.76711561     0.04600
C1783       C  0.77813404  0.03960039  0.78347784    -0.07690
C1784       C  0.77699640  0.07200114  0.79789962    -0.08430
C1785       C  0.74557176  0.09653937  0.79818860    -0.02990
C1786       C  0.71431839  0.08831069  0.78339079     0.03830
N1787       N  0.68095383  0.11199147  0.78316166     0.66340
H1788       H  0.68992309  0.05090436  0.75840281     0.15240
H1789       H  0.80078768  0.07709052  0.80978556     0.14950
N1790       N  0.81044108  0.01506599  0.78633194     0.74040
O1791       O  0.67135237  0.12870510  0.76422805    -0.39410
O1792       O  0.65694765  0.10910708  0.79971965    -0.39350
O1793       O  0.84278280  0.02753788  0.78022157    -0.40050
O1794       O  0.80908613  0.98978797  0.80229374    -0.40120
C1795       C  0.72356397  0.45961523  0.78581963    -0.12400
C1796       C  0.75126066  0.46070527  0.76755150     0.04600
C1797       C  0.78059457  0.43168283  0.76826096    -0.07690
C1798       C  0.77821482  0.40214730  0.78500748    -0.08430
C1799       C  0.74921793  0.40083708  0.80184687    -0.02990
C1800       C  0.72194198  0.43021859  0.80245628     0.03830
N1801       N  0.69311334  0.43160357  0.82037271     0.66340
H1802       H  0.70169034  0.48148955  0.78670947     0.15240
H1803       H  0.80024377  0.38034975  0.78531928     0.14950
N1804       N  0.81462799  0.43203916  0.75408240     0.74040
O1805       O  0.69371481  0.45813388  0.83549583    -0.39410
O1806       O  0.66331194  0.41170185  0.81808589    -0.39350
O1807       O  0.83965683  0.45718498  0.75780747    -0.40050
O1808       O  0.82490879  0.40160863  0.74389829    -0.40120
C1809       C  0.58768388  0.21601488  0.04982230    -0.12400
C1810       C  0.60584439  0.25025027  0.05598031     0.04600
C1811       C  0.59551810  0.28418554  0.04393359    -0.07690
C1812       C  0.56504437  0.28357321  0.02777382    -0.08430
C1813       C  0.54553511  0.24961599  0.02223273    -0.02990
C1814       C  0.55834853  0.21461353  0.03277708     0.03830
N1815       N  0.54077533  0.17792429  0.02792193     0.66340
H1816       H  0.59604306  0.18996731  0.05882372     0.15240
H1817       H  0.55774898  0.30970955  0.01859383     0.14950
N1818       N  0.61712331  0.31880347  0.04658214     0.74040
O1819       O  0.55250923  0.14809565  0.03828164    -0.39410
O1820       O  0.51237700  0.17496167  0.01434788    -0.39350
O1821       O  0.65301897  0.31788296  0.04464809    -0.40050
O1822       O  0.60036146  0.35077230  0.04628050    -0.40120
C1823       C  0.92696651  0.23729715  0.06141167    -0.12400
C1824       C  0.89303860  0.25598997  0.05599034     0.04600
C1825       C  0.89118054  0.27940007  0.03565276    -0.07690
C1826       C  0.92318743  0.28124521  0.02058805    -0.08430
C1827       C  0.95660957  0.25948578  0.02471521    -0.02990
C1828       C  0.95939501  0.24098741  0.04724638     0.03830
N1829       N  0.99457815  0.23589154  0.05952266     0.66340
H1830       H  0.92958515  0.22291127  0.07839255     0.15240
H1831       H  0.92072514  0.29714594  0.00415912     0.14950
N1832       N  0.85666526  0.29913890  0.02899830     0.74040
O1833       O  0.00037260  0.20473046  0.07029372    -0.39410
O1834       O  0.01107286  0.26550630  0.06716446    -0.39350
O1835       O  0.85798445  0.32590704  0.01402324    -0.40050
O1836       O  0.82442268  0.28707993  0.03559401    -0.40120
C1837       C  0.56442363  0.21808845  0.97459417    -0.12400
C1838       C  0.54220472  0.25074995  0.97882421     0.04600
C1839       C  0.55200461  0.28523910  0.96648330    -0.07690
C1840       C  0.57981820  0.28341657  0.94838597    -0.08430
C1841       C  0.60254986  0.25075868  0.94530195    -0.02990
C1842       C  0.59735986  0.21985386  0.96078014     0.03830
N1843       N  0.62906303  0.19606923  0.96714159     0.66340
H1844       H  0.56004797  0.19284743  0.98513148     0.15240
H1845       H  0.58514436  0.30821930  0.93738351     0.14950
N1846       N  0.53406572  0.32176840  0.97144862     0.74040
O1847       O  0.62318547  0.16452710  0.97741354    -0.39410
O1848       O  0.66137411  0.21165325  0.96946180    -0.39350
O1849       O  0.50894200  0.32526395  0.98730344    -0.40050
O1850       O  0.54212399  0.35076804  0.95907219    -0.40120
C1851       C  0.89390376  0.21883511  0.96343668    -0.12400
C1852       C  0.90045181  0.23959791  0.94261554     0.04600
C1853       C  0.93560924  0.25835508  0.93986253    -0.07690
C1854       C  0.96119768  0.25970392  0.95887776    -0.08430
C1855       C  0.95487020  0.24072185  0.98057051    -0.02990
C1856       C  0.92067697  0.21840890  0.98218722     0.03830
N1857       N  0.91172483  0.19626162  0.00294056     0.66340
H1858       H  0.86745052  0.20303530  0.96521446     0.15240
H1859       H  0.98492343  0.27817913  0.95636276     0.14950
N1860       N  0.94695958  0.27475029  0.91759604     0.74040
O1861       O  0.87754537  0.19317717  0.00976495    -0.39410
O1862       O  0.93688988  0.17569645  0.01260086    -0.39350
O1863       O  0.92760563  0.30114516  0.90818017    -0.40050
O1864       O  0.97949242  0.26702350  0.90925695    -0.40120
C1865       C  0.84962427  0.47769603  0.28089811    -0.12400
C1866       C  0.85072783  0.00701922  0.29766054     0.04600
C1867       C  0.82278375  0.03591055  0.29680944    -0.07690
C1868       C  0.79267846  0.03284187  0.28069564    -0.08430
C1869       C  0.78838500  0.00090975  0.26549527    -0.02990
C1870       C  0.82026634  0.47524836  0.26407166     0.03830
N1871       N  0.82519450  0.44790562  0.24541892     0.66340
H1872       H  0.87250256  0.45680715  0.28050150     0.15240
H1873       H  0.77083390  0.05473802  0.28106960     0.14950
N1874       N  0.82277094  0.06714220  0.31319026     0.74040
O1875       O  0.83245331  0.45961679  0.22475378    -0.39410
O1876       O  0.83292407  0.41362646  0.25060814    -0.39350
O1877       O  0.84738738  0.09325044  0.31114062    -0.40050
O1878       O  0.79387282  0.07284102  0.32605611    -0.40120
C1879       C  0.71813081  0.49478352  0.29222086    -0.12400
C1880       C  0.71432152  0.99478803  0.26717362     0.04600
C1881       C  0.67657507  0.98824502  0.25813401    -0.07690
C1882       C  0.64506881  0.98828865  0.27360288    -0.08430
C1883       C  0.64979972  0.99423629  0.29791487    -0.02990
C1884       C  0.68676348  0.49638986  0.30736614     0.03830
N1885       N  0.69314081  0.49989269  0.33242786     0.66340
H1886       H  0.74547587  0.49356921  0.30083215     0.15240
H1887       H  0.61663383  0.98399163  0.26650319     0.14950
N1888       N  0.66957849  0.97919286  0.23373100     0.74040
O1889       O  0.71873093  0.48011555  0.34238642    -0.39410
O1890       O  0.67801662  0.02703947  0.34374340    -0.39350
O1891       O  0.65443335  0.44755926  0.22852486    -0.40050
O1892       O  0.67236710  0.00457941  0.21794102    -0.40120
C1893       C  0.78402015  0.04558677  0.22308443    -0.12400
C1894       C  0.75050242  0.03739756  0.23625378     0.04600
C1895       C  0.72106808  0.06590633  0.23548093    -0.07690
C1896       C  0.72262356  0.09498965  0.21826037    -0.08430
C1897       C  0.75471055  0.10002763  0.20383950    -0.02990
C1898       C  0.78659925  0.07643628  0.20754373     0.03830
N1899       N  0.82166493  0.08251295  0.19519815     0.66340
H1900       H  0.80845121  0.02684636  0.22415586     0.15240
H1901       H  0.69909562  0.11501951  0.21686687     0.14950
N1902       N  0.69093656  0.06826434  0.25256484     0.74040
O1903       O  0.84917508  0.09850120  0.20569115    -0.39410
O1904       O  0.82704055  0.06694940  0.17532806    -0.39350
O1905       O  0.69914499  0.07540942  0.27387849    -0.40050
O1906       O  0.65705450  0.07362017  0.24561622    -0.40120
C1907       C  0.74413483  0.39382078  0.22727710    -0.12400
C1908       C  0.74806863  0.39911669  0.20290646     0.04600
C1909       C  0.75121514  0.43626338  0.19358277    -0.07690
C1910       C  0.75076885  0.46738422  0.20906696    -0.08430
C1911       C  0.74955523  0.46303430  0.23407521    -0.02990
C1912       C  0.74495035  0.42486950  0.24298614     0.03830
N1913       N  0.73902632  0.41682231  0.26766331     0.66340
H1914       H  0.74087599  0.36511600  0.23425499     0.15240
H1915       H  0.75039135  0.49505507  0.20076817     0.14950
N1916       N  0.75480061  0.44322932  0.16847360     0.74040
O1917       O  0.71001494  0.39796279  0.27390329    -0.39410
O1918       O  0.76562030  0.42172285  0.28242288    -0.39350
O1919       O  0.73648002  0.42342625  0.15364648    -0.40050
O1920       O  0.77381804  0.47150208  0.16111595    -0.40120
C1921       C  0.75031998  0.99876412  0.25074112    -0.02620
C1922       C  0.97965539  0.74920008  0.00250415     0.00430
C1923       C  0.51935325  0.75043483  0.00131338     0.00430
C1924       C  0.74819228  0.99543621  0.75025003    -0.02620
C1925       C  0.50104923  0.75203744  0.75086545    -0.02620
C1926       C  0.75007567  0.97749717  0.00103411     0.00430
C1927       C  0.75052235  0.51657509  0.00067996     0.00430
N1928       N  0.73263823  0.82974596  0.89901131    -0.06250
N1929       N  0.72001333  0.85530333  0.91430657    -0.58370
N1930       N  0.76915198  0.83070267  0.84505012    -0.05930
N1931       N  0.78193259  0.85487804  0.82894010    -0.60500
N1932       N  0.73162191  0.83093773  0.84535717    -0.05530
N1933       N  0.71806657  0.85537110  0.82970094    -0.58350
N1934       N  0.77020870  0.82873738  0.89910301    -0.05210
N1935       N  0.78385402  0.85359157  0.91450417    -0.60850
C1936       C  0.75225144  0.86998086  0.92380511     0.95920
C1937       C  0.74967362  0.86999831  0.81956035     0.95700
N1938       N  0.83170453  0.72945814  0.84184543    -0.06440
N1939       N  0.85447278  0.71784197  0.82459161    -0.58950
N1940       N  0.83340286  0.76261455  0.89775704    -0.04560
N1941       N  0.85660431  0.77412830  0.91476140    -0.60200
N1942       N  0.83324261  0.72501799  0.89662438    -0.06470
N1943       N  0.85618881  0.71024852  0.91288145    -0.59220
N1944       N  0.83207590  0.76698877  0.84319985    -0.04200
N1945       N  0.85497549  0.78163298  0.82700929    -0.60290
Mn1946     Mn  0.80203431  0.79782546  0.87143376     1.18440
C1947       C  0.86825543  0.75078237  0.81524931     0.98010
C1948       C  0.87067617  0.74123952  0.92399867     0.98670
N1949       N  0.66737228  0.76846527  0.84435389    -0.06490
N1950       N  0.64564029  0.78225335  0.82715082    -0.62800
N1951       N  0.66797513  0.72926533  0.89899310    -0.05290
N1952       N  0.64513060  0.71687127  0.91602909    -0.63470
N1953       N  0.66842798  0.76690142  0.89885401    -0.05990
N1954       N  0.64609608  0.78080079  0.91556756    -0.63060
N1955       N  0.66684641  0.73090990  0.84416791    -0.04890
N1956       N  0.64491915  0.71833416  0.82687055    -0.63750
Mn1957     Mn  0.69931420  0.79949959  0.87190012     1.10660
C1958       C  0.63212390  0.75056167  0.81621938     0.99230
C1959       C  0.63190517  0.74941271  0.92632523     0.99300
N1960       N  0.76913529  0.66152394  0.89536288    -0.06000
N1961       N  0.78239609  0.63586185  0.91056880    -0.61380
N1962       N  0.72905195  0.66669161  0.84209130    -0.05320
N1963       N  0.71492259  0.64352516  0.82584939    -0.58100
N1964       N  0.76660138  0.66630129  0.84141879    -0.06630
N1965       N  0.77864852  0.64272483  0.82482819    -0.60940
N1966       N  0.73157697  0.66236019  0.89587273    -0.05620
N1967       N  0.71865727  0.63695680  0.91111430    -0.58130
Mn1968     Mn  0.80099519  0.69492308  0.86874818     1.20190
Mn1969     Mn  0.69798960  0.69664520  0.87049433     1.10090
Cl1970     Cl  0.75010673  0.74716296  0.87080551    -0.86100
C1971       C  0.75049761  0.62094936  0.92046736     0.96230
C1972       C  0.74615288  0.62895881  0.81505154     0.96030
N1973       N  0.66918535  0.72660539  0.15888847    -0.06250
N1974       N  0.64744994  0.71190807  0.17567370    -0.58370
N1975       N  0.66703223  0.76730942  0.10500764    -0.05930
N1976       N  0.64542869  0.78114389  0.08783579    -0.60500
N1977       N  0.66805250  0.72973453  0.10408353    -0.05530
N1978       N  0.64725149  0.71734856  0.08614373    -0.58350
N1979       N  0.66792580  0.76414744  0.15950371    -0.05210
N1980       N  0.64501223  0.77578109  0.17659145    -0.60850
C1981       C  0.63300098  0.74291433  0.18676788     0.95920
C1982       C  0.63352288  0.74974371  0.07599094     0.95700
N1983       N  0.76609844  0.83384036  0.10593535    -0.06440
N1984       N  0.77875166  0.85919103  0.09051574    -0.58950
N1985       N  0.72999985  0.82870714  0.16049479    -0.04560
N1986       N  0.71676983  0.85112067  0.17737269    -0.60200
N1987       N  0.76752509  0.82986877  0.15994287    -0.06470
N1988       N  0.78060414  0.85334993  0.17631522    -0.59220
N1989       N  0.72858673  0.83340706  0.10621957    -0.04200
N1990       N  0.71492011  0.85858108  0.09091122    -0.60290
Mn1991     Mn  0.69742552  0.79907351  0.13279586     1.18440
C1992       C  0.74658505  0.87459772  0.08133376     0.98010
C1993       C  0.74866490  0.86576650  0.18730024     0.98670
N1994       N  0.73243185  0.66580357  0.10313648    -0.06490
N1995       N  0.71966395  0.64147246  0.08710016    -0.62800
N1996       N  0.77125291  0.66574959  0.15721259    -0.05290
N1997       N  0.78529068  0.64366284  0.17407101    -0.63470
N1998       N  0.73372422  0.66496257  0.15753445    -0.05990
N1999       N  0.72147076  0.64247109  0.17471392    -0.63060
N2000       N  0.76994832  0.66646410  0.10303914    -0.04890
N2001       N  0.78337227  0.64255233  0.08701963    -0.63750
Mn2002     Mn  0.69989067  0.69600193  0.13080753     1.10660
C2003       C  0.75177437  0.62729398  0.07699757     0.99230
C2004       C  0.75395367  0.62939667  0.18492494     0.99300
N2005       N  0.83224596  0.76802675  0.15768846    -0.06000
N2006       N  0.85503724  0.78138944  0.17429919    -0.61380
N2007       N  0.83081306  0.73305498  0.10266234    -0.05320
N2008       N  0.85200545  0.72138108  0.08477304    -0.58100
N2009       N  0.82943022  0.77064744  0.10315717    -0.06630
N2010       N  0.84938612  0.78530882  0.08552463    -0.60940
N2011       N  0.83346919  0.73049161  0.15723314    -0.05620
N2012       N  0.85723764  0.71749155  0.17357992    -0.58130
Mn2013     Mn  0.79966155  0.80120417  0.13166979     1.20190
Mn2014     Mn  0.80233629  0.69819124  0.13000126     1.10090
Cl2015     Cl  0.74980756  0.74859760  0.13122835    -0.86100
C2016       C  0.87049784  0.74964545  0.18404810     0.96230
C2017       C  0.86283553  0.75424178  0.07402518     0.96030
N2018       N  0.58058587  0.52017494  0.65720062    -0.06250
N2019       N  0.60424267  0.53298026  0.67355804    -0.58370
N2020       N  0.58033396  0.98531959  0.60205708    -0.05930
N2021       N  0.60341601  0.97396833  0.58489973    -0.60500
N2022       N  0.57948565  0.52292909  0.60299209    -0.05530
N2023       N  0.60172350  0.53791732  0.58658292    -0.58350
N2024       N  0.58113623  0.98260449  0.65658346    -0.05210
N2025       N  0.60513395  0.96903837  0.67257922    -0.60850
C2026       C  0.61933789  0.50079150  0.68300738     0.95920
C2027       C  0.61623162  0.50716435  0.57536060     0.95700
N2028       N  0.97959315  0.91898082  0.60231290    -0.06440
N2029       N  0.96660047  0.89364861  0.58696593    -0.58950
N2030       N  0.51776969  0.91856860  0.65643068    -0.04560
N2031       N  0.53109934  0.89533169  0.67300157    -0.60200
N2032       N  0.98017992  0.91885150  0.65672963    -0.06470
N2033       N  0.96722919  0.89610142  0.67358996    -0.59220
N2034       N  0.51715727  0.91947089  0.60205014    -0.04200
N2035       N  0.53031364  0.89459009  0.58648208    -0.60290
Mn2036     Mn  0.54989767  0.95072331  0.62916720     1.18440
C2037       C  0.99852332  0.87854829  0.57717864     0.98010
C2038       C  0.99925826  0.88202804  0.68378229     0.98670
N2039       N  0.51550730  0.58557052  0.60453207    -0.06490
N2040       N  0.52855657  0.60820717  0.58772137    -0.62800
N2041       N  0.97904353  0.58310672  0.65925097    -0.05290
N2042       N  0.96649536  0.60551134  0.67641485    -0.63470
N2043       N  0.51656784  0.58317396  0.65885058    -0.05990
N2044       N  0.53021235  0.60564304  0.67559059    -0.63060
N2045       N  0.97801008  0.58585719  0.60471215    -0.04890
N2046       N  0.96481032  0.60900781  0.58808783    -0.63750
Mn2047     Mn  0.54864210  0.55360115  0.63092339     1.10660
C2048       C  0.99668505  0.62261877  0.57747866     0.99230
C2049       C  0.99873667  0.61921331  0.68663089     0.99300
N2050       N  0.91546264  0.98142326  0.65710474    -0.06000
N2051       N  0.89128459  0.96748800  0.67280093    -0.61380
N2052       N  0.91452341  0.52123474  0.60385120    -0.05320
N2053       N  0.89012422  0.53518301  0.58824067    -0.58100
N2054       N  0.91475336  0.98359517  0.60300330    -0.06630
N2055       N  0.89040848  0.97132364  0.58676387    -0.60940
N2056       N  0.91545794  0.51900116  0.65779933    -0.05620
N2057       N  0.89130774  0.53140234  0.67393674    -0.58130
Mn2058     Mn  0.94686586  0.94997461  0.62967457     1.20190
Mn2059     Mn  0.94606636  0.55306965  0.63142433     1.10090
Cl2060     Cl  0.99782953  0.50179468  0.63020245    -0.86100
C2061       C  0.87681593  0.49899546  0.68337349     0.96230
C2062       C  0.87512183  0.50385353  0.57771237     0.96030
N2063       N  0.97638008  0.91719049  0.34135703    -0.06250
N2064       N  0.96167982  0.89578358  0.32444325    -0.58370
N2065       N  0.51591919  0.91288713  0.39485793    -0.05930
N2066       N  0.52930393  0.88913497  0.41098460    -0.60500
N2067       N  0.97838403  0.91389351  0.39552275    -0.05530
N2068       N  0.96547985  0.89043242  0.41204908    -0.58350
N2069       N  0.51386736  0.91607701  0.34057385    -0.05210
N2070       N  0.52539292  0.89405351  0.32300470    -0.60850
C2071       C  0.99251233  0.88167097  0.31301832     0.95920
C2072       C  0.99767453  0.87546032  0.42164916     0.95700
N2073       N  0.58415285  0.51081599  0.39624573    -0.06440
N2074       N  0.60963652  0.52190072  0.41203315    -0.58950
N2075       N  0.58009322  0.97633565  0.34098117    -0.04560
N2076       N  0.60201874  0.96300736  0.32385980    -0.60200
N2077       N  0.58166477  0.51385970  0.34168365    -0.06470
N2078       N  0.60450819  0.52685161  0.32493001    -0.59220
N2079       N  0.58266992  0.97321755  0.39548820    -0.04200
N2080       N  0.60694913  0.95803997  0.41087121    -0.60290
Mn2081     Mn  0.54880729  0.94385824  0.36797079     1.18440
C2082       C  0.62358031  0.48879241  0.42107704     0.98010
C2083       C  0.61657700  0.49486444  0.31376525     0.98670
N2084       N  0.91665958  0.98104354  0.39747196    -0.06490
N2085       N  0.89256528  0.96881271  0.41383218    -0.62800
N2086       N  0.91761885  0.52085045  0.34373743    -0.05290
N2087       N  0.89524046  0.53591893  0.32739498    -0.63470
N2088       N  0.91591668  0.98333500  0.34309966    -0.05990
N2089       N  0.89259081  0.97208298  0.32612013    -0.63060
N2090       N  0.91880077  0.51859116  0.39789394    -0.04890
N2091       N  0.89649304  0.53253763  0.41458487    -0.63750
Mn2092     Mn  0.94595417  0.94803084  0.36947598     1.10660
C2093       C  0.88047473  0.50125738  0.42460017     0.99230
C2094       C  0.87992190  0.50521057  0.31648097     0.99300
N2095       N  0.52147518  0.57979473  0.34342462    -0.06000
N2096       N  0.53538106  0.60251994  0.32686024    -0.61380
N2097       N  0.98487754  0.57980521  0.39794652    -0.05320
N2098       N  0.97214016  0.60410646  0.41387813    -0.58100
N2099       N  0.52242914  0.57912167  0.39789357    -0.06630
N2100       N  0.53584264  0.60349115  0.41381101    -0.60940
N2101       N  0.98396973  0.58159585  0.34375033    -0.05620
N2102       N  0.97157449  0.60593644  0.32755323    -0.58130
Mn2103     Mn  0.55328677  0.54658146  0.37000527     1.20190
Mn2104     Mn  0.95071561  0.55083853  0.37086608     1.10090
Cl2105     Cl  0.99969590  0.49731910  0.36984739    -0.86100
C2106       C  0.00392409  0.61821490  0.31693658     0.96230
C2107       C  0.00398678  0.61872186  0.42380020     0.96030
C2108       C  0.49637069  0.76886680  0.50027139     0.00430
C2109       C  0.50506339  0.73058497  0.49984239     0.00430
C2110       C  0.76751963  0.01436018  0.49918769     0.00430
C2111       C  0.72796756  0.00980104  0.49855985     0.00430
C2112       C  0.50010528  0.74806705  0.25039587    -0.02620
C2113       C  0.52184347  0.84897217  0.27855965    -0.12400
C2114       C  0.99111975  0.85218961  0.29426258     0.04600
C2115       C  0.96135017  0.82534405  0.29286771    -0.07690
C2116       C  0.96522374  0.79374672  0.27801548    -0.08430
C2117       C  0.49808421  0.78742395  0.26389929    -0.02990
C2118       C  0.52468286  0.81848896  0.26245505     0.03830
N2119       N  0.55368530  0.82126212  0.24462102     0.66340
H2120       H  0.54357983  0.87100146  0.27843275     0.15240
H2121       H  0.94263164  0.77278190  0.27829291     0.14950
N2122       N  0.92776716  0.82839848  0.30719884     0.74040
O2123       O  0.58746207  0.82934078  0.25063361    -0.39410
O2124       O  0.54400417  0.82602794  0.22327630    -0.39350
O2125       O  0.90390061  0.85460872  0.30297264    -0.40050
O2126       O  0.91809684  0.80077609  0.32029645    -0.40120
C2127       C  0.50964153  0.64452327  0.27637717    -0.12400
C2128       C  0.00525924  0.65094172  0.30063173     0.04600
C2129       C  0.00233339  0.68859317  0.30911022    -0.07690
C2130       C  0.00229784  0.71889190  0.29288253    -0.08430
C2131       C  0.50280151  0.71326307  0.26795262    -0.02990
C2132       C  0.50868110  0.67479728  0.25999074     0.03830
N2133       N  0.51591534  0.66573423  0.23562804     0.66340
H2134       H  0.51337382  0.61554084  0.27001133     0.15240
H2135       H  0.00303742  0.74699776  0.30052333     0.14950
N2136       N  0.99958939  0.69690313  0.33408976     0.74040
O2137       O  0.54683106  0.64945218  0.23013238    -0.39410
O2138       O  0.98925562  0.66691169  0.22061067    -0.39350
O2139       O  0.51764494  0.67719909  0.34915639    -0.40050
O2140       O  0.98170563  0.72617784  0.34102749    -0.40120
C2141       C  0.53710731  0.67036789  0.44663850    -0.12400
C2142       C  0.00361229  0.64960599  0.44198230     0.04600
C2143       C  0.97035950  0.65855860  0.45502304    -0.07690
C2144       C  0.97198860  0.68584238  0.47302131    -0.08430
C2145       C  0.50508749  0.70717792  0.47759768    -0.02990
C2146       C  0.53830329  0.69942709  0.46397990     0.03830
N2147       N  0.57367818  0.71936405  0.46781732     0.66340
H2148       H  0.56258414  0.66413685  0.43649889     0.15240
H2149       H  0.94687745  0.68996432  0.48385927     0.14950
N2150       N  0.93466396  0.63989100  0.45069083     0.74040
O2151       O  0.60507769  0.70341642  0.46299817    -0.39410
O2152       O  0.57379919  0.75403224  0.47382925    -0.39350
O2153       O  0.91886721  0.62132715  0.46717229    -0.40050
O2154       O  0.91507223  0.64956813  0.43286765    -0.40120
C2155       C  0.52528506  0.82114827  0.47704454    -0.12400
C2156       C  0.49651835  0.79324062  0.47848222     0.04600
C2157       C  0.96823600  0.79197035  0.46043800    -0.07690
C2158       C  0.96951937  0.81904454  0.44196519    -0.08430
C2159       C  0.99835110  0.84678271  0.44084318    -0.02990
C2160       C  0.52697063  0.84717025  0.45836351     0.03830
N2161       N  0.55719724  0.87469956  0.45806812     0.66340
H2162       H  0.54723412  0.82260481  0.49053782     0.15240
H2163       H  0.94753115  0.81872309  0.42844024     0.14950
N2164       N  0.93761532  0.76465516  0.46061103     0.74040
O2165       O  0.56031226  0.89809543  0.47495832    -0.39410
O2166       O  0.58508983  0.86992854  0.44425045    -0.39350
O2167       O  0.92095383  0.75605763  0.47965272    -0.40050
O2168       O  0.92411756  0.75239689  0.44130886    -0.40120
C2169       C  0.65602217  0.46153496  0.45705903    -0.12400
C2170       C  0.65617075  0.48716549  0.43788393     0.04600
C2171       C  0.68614443  0.01376012  0.43602372    -0.07690
C2172       C  0.71125813  0.01846057  0.45506486    -0.08430
C2173       C  0.70890521  0.99619062  0.47578351    -0.02990
C2174       C  0.68266793  0.46507808  0.47582117     0.03830
N2175       N  0.68145597  0.93832340  0.49524911     0.66340
H2176       H  0.63404448  0.43982822  0.45791794     0.15240
H2177       H  0.73109481  0.04132521  0.45375473     0.14950
N2178       N  0.69139135  0.53632811  0.41492309     0.74040
O2179       O  0.65136246  0.41973960  0.49957079    -0.39410
O2180       O  0.71132702  0.93064965  0.50686858    -0.39350
O2181       O  0.68686838  0.52129462  0.39479746    -0.40050
O2182       O  0.70548453  0.06947710  0.41618249    -0.40120
C2183       C  0.80916339  0.97554300  0.47325048    -0.12400
C2184       C  0.79157178  0.01104873  0.47740677     0.04600
C2185       C  0.80315980  0.54340246  0.46384279    -0.07690
C2186       C  0.83195947  0.53856371  0.44674215    -0.08430
C2187       C  0.85043214  0.50336070  0.44319678    -0.02990
C2188       C  0.83908902  0.97149537  0.45691539     0.03830
N2189       N  0.85931010  0.93578043  0.45595678     0.66340
H2190       H  0.80132926  0.95123801  0.48413613     0.15240
H2191       H  0.84034997  0.56285749  0.43605559     0.14950
N2192       N  0.78657930  0.58113357  0.46686515     0.74040
O2193       O  0.89517476  0.43533207  0.45819361    -0.39410
O2194       O  0.84120088  0.90470244  0.45758792    -0.39350
O2195       O  0.75751197  0.58649366  0.47963079    -0.40050
O2196       O  0.80009815  0.10943425  0.45577899    -0.40120
C2197       C  0.63411329  0.01827747  0.53369640    -0.12400
C2198       C  0.64564744  0.50993851  0.55679675     0.04600
C2199       C  0.68493704  0.51020674  0.56221981    -0.07690
C2200       C  0.71153403  0.51329676  0.54364805    -0.08430
C2201       C  0.70052732  0.01659847  0.51957526    -0.02990
C2202       C  0.66085511  0.02395260  0.51548611     0.03830
N2203       N  0.64744440  0.04040384  0.49366103     0.66340
H2204       H  0.60399277  0.02242930  0.53007405     0.15240
H2205       H  0.74050903  0.51325204  0.54906147     0.14950
N2206       N  0.69862467  0.50863367  0.58635465     0.74040
O2207       O  0.61516334  0.03120355  0.48547883    -0.39410
O2208       O  0.66439254  0.56905439  0.48505557    -0.39350
O2209       O  0.68077488  0.99025257  0.60208231    -0.40050
O2210       O  0.72967745  0.52464883  0.59188708    -0.40120
C2211       C  0.79583093  0.47867207  0.53357578    -0.12400
C2212       C  0.79182733  0.01347313  0.52114119     0.04600
C2213       C  0.81588691  0.04421625  0.52756434    -0.07690
C2214       C  0.84249071  0.03986283  0.54585591    -0.08430
C2215       C  0.84544498  0.50584476  0.55884089    -0.02990
C2216       C  0.82045328  0.47529092  0.55328203     0.03830
N2217       N  0.81758483  0.44211681  0.56824877     0.66340
H2218       H  0.77783707  0.45477391  0.52872881     0.15240
H2219       H  0.86099848  0.06374387  0.54999615     0.14950
N2220       N  0.81374058  0.08047672  0.51605459     0.74040
O2221       O  0.80902536  0.41012226  0.55940490    -0.39410
O2222       O  0.81581856  0.94613139  0.59045377    -0.39350
O2223       O  0.78787191  0.60351746  0.52223187    -0.40050
O2224       O  0.84296936  0.09330154  0.50567171    -0.40120
C2225       C  0.96902626  0.69950071  0.53243063    -0.12400
C2226       C  0.50452397  0.70737565  0.52201648     0.04600
C2227       C  0.53697296  0.68683423  0.52974807    -0.07690
C2228       C  0.53321917  0.65952519  0.54772903    -0.08430
C2229       C  0.99766707  0.65109344  0.55793124    -0.02990
C2230       C  0.96498794  0.67102029  0.54977878     0.03830
N2231       N  0.92735440  0.66153002  0.55776712     0.66340
H2232       H  0.94370908  0.71356872  0.52570296     0.15240
H2233       H  0.55859941  0.64454977  0.55364283     0.14950
N2234       N  0.57390008  0.69281234  0.51948010     0.74040
O2235       O  0.90493974  0.68783323  0.56415203    -0.39410
O2236       O  0.91384445  0.62891738  0.55318895    -0.39350
O2237       O  0.58825461  0.72583414  0.51929210    -0.40050
O2238       O  0.59500367  0.66449544  0.51489955    -0.40120
C2239       C  0.96364239  0.83815725  0.54815602    -0.12400
C2240       C  0.99818157  0.84690156  0.55954032     0.04600
C2241       C  0.53129484  0.82594416  0.55324265    -0.07690
C2242       C  0.52929271  0.79865370  0.53503919    -0.08430
C2243       C  0.49502513  0.79098280  0.52305695    -0.02990
C2244       C  0.96179910  0.81073726  0.53013746     0.03830
N2245       N  0.92585980  0.80387877  0.51902103     0.66340
H2246       H  0.93778932  0.85340347  0.55282487     0.15240
H2247       H  0.55520350  0.78471513  0.52944038     0.14950
N2248       N  0.56719669  0.83193564  0.56488249     0.74040
O2249       O  0.90527074  0.77688517  0.52652324    -0.39410
O2250       O  0.91081412  0.82993442  0.50663266    -0.39350
O2251       O  0.56999458  0.82637963  0.58692409    -0.40050
O2252       O  0.59721546  0.83564447  0.55274276    -0.40120
C2253       C  0.60534625  0.73969886  0.22719517    -0.12400
C2254       C  0.59995159  0.74109665  0.20266977     0.04600
C2255       C  0.56276610  0.74149125  0.19338678    -0.07690
C2256       C  0.53182369  0.74213315  0.20891677    -0.08430
C2257       C  0.53608614  0.74482905  0.23390747    -0.02990
C2258       C  0.57422342  0.74104279  0.24293404     0.03830
N2259       N  0.58217849  0.73622343  0.26773265     0.66340
H2260       H  0.63409820  0.73794866  0.23424071     0.15240
H2261       H  0.50433869  0.73903477  0.20066537     0.14950
N2262       N  0.55556073  0.74149534  0.16822188     0.74040
O2263       O  0.60179803  0.70793395  0.27449538    -0.39050
O2264       O  0.57584124  0.76294601  0.28216593    -0.39350
O2265       O  0.57482571  0.72055649  0.15451459    -0.40050
O2266       O  0.52713709  0.75933068  0.15994851    -0.40120
C2267       C  0.90306845  0.72112596  0.21900269    -0.12400
C2268       C  0.90113221  0.75027467  0.20202364     0.04600
C2269       C  0.92776196  0.78030779  0.20295528    -0.07690
C2270       C  0.95656952  0.77944993  0.21999437    -0.08430
C2271       C  0.96199339  0.74805717  0.23555284    -0.02990
C2272       C  0.93181977  0.72044686  0.23643501     0.03830
N2273       N  0.92780406  0.69305357  0.25520429     0.66340
H2274       H  0.88104998  0.69938360  0.21929227     0.15240
H2275       H  0.97728065  0.80225713  0.21960270     0.14950
N2276       N  0.92809758  0.81041980  0.18563689     0.74040
O2277       O  0.92097221  0.70461957  0.27593393    -0.39410
O2278       O  0.92089684  0.65856725  0.25021160    -0.39350
O2279       O  0.93321729  0.84456080  0.19211561    -0.40050
O2280       O  0.93034265  0.80233829  0.16388644    -0.40120
C2281       C  0.78420468  0.55538687  0.03041076    -0.12400
C2282       C  0.74943623  0.53972766  0.02290748     0.04600
C2283       C  0.71514052  0.55120006  0.03440649    -0.07690
C2284       C  0.71725558  0.57967966  0.05205020    -0.08430
C2285       C  0.75200079  0.59682849  0.05856742    -0.02990
C2286       C  0.78597320  0.58371573  0.04781252     0.03830
N2287       N  0.82249154  0.59966639  0.05349907     0.66340
H2288       H  0.81042377  0.54665364  0.02193961     0.15240
H2289       H  0.69128336  0.58902278  0.06065307     0.14950
N2290       N  0.67815627  0.53538601  0.02848863     0.74040
O2291       O  0.84946316  0.57781619  0.05964163    -0.39410
O2292       O  0.82991811  0.63368199  0.04760572    -0.39350
O2293       O  0.67423890  0.51108330  0.01221530    -0.40050
O2294       O  0.64875263  0.54568934  0.03973177    -0.40120
C2295       C  0.77598551  0.95601854  0.04025776    -0.12400
C2296       C  0.74616172  0.95530513  0.02363271     0.04600
C2297       C  0.71496032  0.93037185  0.02762525    -0.07690
C2298       C  0.71493537  0.90626086  0.04741095    -0.08430
C2299       C  0.74600319  0.90494488  0.06299524    -0.02990
C2300       C  0.77658772  0.93089211  0.05970365     0.03830
N2301       N  0.80832540  0.93232088  0.07581261     0.66340
H2302       H  0.79972692  0.97533172  0.03764448     0.15240
H2303       H  0.69119128  0.88683387  0.04982126     0.14950
N2304       N  0.68322264  0.92828997  0.01168346     0.74040
O2305       O  0.84173302  0.93706624  0.06797316    -0.39410
O2306       O  0.80259685  0.93425430  0.09785832    -0.39350
O2307       O  0.68585954  0.90730170  0.99361306    -0.40050
O2308       O  0.65036810  0.93629975  0.01939619    -0.40120
C2309       C  0.71894928  0.56229016  0.97358297    -0.12400
C2310       C  0.75082713  0.53938395  0.97819170     0.04600
C2311       C  0.78239054  0.54164476  0.96257868    -0.07690
C2312       C  0.78163591  0.56772974  0.94350397    -0.08430
C2313       C  0.75008684  0.59183007  0.93974120    -0.02990
C2314       C  0.71827538  0.58819276  0.95484762     0.03830
N2315       N  0.68659387  0.61360501  0.95311051     0.66340
H2316       H  0.69474546  0.56181869  0.98535405     0.15240
H2317       H  0.80623917  0.56981277  0.93196544     0.14950
N2318       N  0.81597463  0.51917856  0.96626336     0.74040
O2319       O  0.65293719  0.60085195  0.95406986    -0.39410
O2320       O  0.69242700  0.64898702  0.95490868    -0.39350
O2321       O  0.82854691  0.49877376  0.94957594    -0.40050
O2322       O  0.83762151  0.52676531  0.98348500    -0.40120
C2323       C  0.72650382  0.95706443  0.96100852    -0.12400
C2324       C  0.75413117  0.95439809  0.97898794     0.04600
C2325       C  0.78280649  0.92611883  0.97730962    -0.07690
C2326       C  0.78192014  0.89976108  0.95875708    -0.08430
C2327       C  0.75323870  0.90101473  0.94151080    -0.02990
C2328       C  0.72583737  0.93085373  0.94213313     0.03830
N2329       N  0.69763994  0.93529918  0.92379114     0.66340
H2330       H  0.70448089  0.97873054  0.96217289     0.15240
H2331       H  0.80345475  0.87750844  0.95813312     0.14950
N2332       N  0.81269074  0.92326251  0.99456828     0.74040
O2333       O  0.66478557  0.94776316  0.92878656    -0.39410
O2334       O  0.70705704  0.93219886  0.90229279    -0.39350
O2335       O  0.82100293  0.89124440  0.00345883    -0.40050
O2336       O  0.83336215  0.95178813  0.99918369    -0.40120
C2337       C  0.97267972  0.68669785  0.73731282    -0.12400
C2338       C  0.00260079  0.71359369  0.73650724     0.04600
C2339       C  0.53455594  0.70390252  0.72187406    -0.07690
C2340       C  0.53265538  0.67267220  0.70642525    -0.08430
C2341       C  0.00003845  0.64968358  0.70498992    -0.02990
C2342       C  0.97024303  0.65634980  0.72122338     0.03830
N2343       N  0.93713207  0.63268903  0.72196457     0.66340
H2344       H  0.95029800  0.68876681  0.75028327     0.15240
H2345       H  0.55677097  0.66718474  0.69491166     0.14950
N2346       N  0.56917016  0.72560240  0.72206944     0.74040
O2347       O  0.92727965  0.61832586  0.74155586    -0.39410
O2348       O  0.91260000  0.63591172  0.70568804    -0.39350
O2349       O  0.59713826  0.71312264  0.73391051    -0.40050
O2350       O  0.57537662  0.74933404  0.70566364    -0.40120
C2351       C  0.49819458  0.78146768  0.70836799    -0.12400
C2352       C  0.99969253  0.78710110  0.73329965     0.04600
C2353       C  0.99746481  0.82585117  0.74121425    -0.07690
C2354       C  0.99757505  0.85617648  0.72479244    -0.08430
C2355       C  0.99904866  0.84947631  0.70038268    -0.02990
C2356       C  0.49912049  0.81161218  0.69201738     0.03830
N2357       N  0.50023159  0.80282788  0.66704616     0.66340
H2358       H  0.49500464  0.75342095  0.70083169     0.15240
H2359       H  0.99614238  0.88532500  0.73121730     0.14950
N2360       N  0.99292673  0.83525876  0.76570983     0.74040
O2361       O  0.51659490  0.77275531  0.65997649    -0.39410
O2362       O  0.48238464  0.82306419  0.65216318    -0.39350
O2363       O  0.02133115  0.84721222  0.77728462    -0.40050
O2364       O  0.95986832  0.84285890  0.77323641    -0.40120
C2365       C  0.56671389  0.77927713  0.76500955    -0.12400
C2366       C  0.53804093  0.75085456  0.76648433     0.04600
C2367       C  0.54474852  0.71991584  0.78257297    -0.07690
C2368       C  0.57614340  0.72045511  0.79775810    -0.08430
C2369       C  0.60241109  0.75045457  0.79752780    -0.02990
C2370       C  0.59855166  0.77959118  0.78031571     0.03830
N2371       N  0.62724362  0.80863468  0.77737322     0.66340
H2372       H  0.56539845  0.80103428  0.75147444     0.15240
H2373       H  0.57931025  0.69729779  0.81040462     0.14950
N2374       N  0.51987457  0.68752032  0.78405497     0.74040
O2375       O  0.61810749  0.84135099  0.76974294    -0.39410
O2376       O  0.66218845  0.80022667  0.77918246    -0.39350
O2377       O  0.52946435  0.65718970  0.77353353    -0.40050
O2378       O  0.49681420  0.68516221  0.80115117    -0.40120
C2379       C  0.96881745  0.76199185  0.79204937    -0.12400
C2380       C  0.96471749  0.75556711  0.76731224     0.04600
C2381       C  0.92636738  0.75417492  0.75860854    -0.07690
C2382       C  0.89556343  0.75110077  0.77453435    -0.08430
C2383       C  0.90124647  0.75263912  0.79906584    -0.02990
C2384       C  0.93813808  0.75978609  0.80789501     0.03830
N2385       N  0.94524274  0.76472829  0.83288115     0.66340
H2386       H  0.99625933  0.76853449  0.79969429     0.15240
H2387       H  0.86679714  0.74844505  0.76763920     0.14950
N2388       N  0.91785419  0.75566209  0.73378571     0.74040
O2389       O  0.92825777  0.74427135  0.84799561    -0.39410
O2390       O  0.97135663  0.78693215  0.83981237    -0.39350
O2391       O  0.89974236  0.72838293  0.72443587    -0.40050
O2392       O  0.91719934  0.78782437  0.72363853    -0.40120
C2393       C  0.80709321  0.52781720  0.73133268    -0.12400
C2394       C  0.78147320  0.49670650  0.73184604     0.04600
C2395       C  0.78588247  0.96865237  0.71358051    -0.07690
C2396       C  0.81799978  0.96928048  0.69887609    -0.08430
C2397       C  0.84520738  0.49829537  0.70057840    -0.02990
C2398       C  0.83943387  0.52808048  0.71689394     0.03830
N2399       N  0.86678678  0.55813012  0.71986336     0.66340
H2400       H  0.80294835  0.55244936  0.74241172     0.15240
H2401       H  0.82087300  0.94746140  0.68537672     0.14950
N2402       N  0.75758351  0.94022664  0.70874538     0.74040
O2403       O  0.85558251  0.59130055  0.72527045    -0.39410
O2404       O  0.90183148  0.55007988  0.72153222    -0.39350
O2405       O  0.73324841  0.94723570  0.69280349    -0.40050
O2406       O  0.76505453  0.90572383  0.71334623    -0.40120
C2407       C  0.70837689  0.52577567  0.71782277    -0.12400
C2408       C  0.71126515  0.49525785  0.73437247     0.04600
C2409       C  0.68166566  0.96687634  0.73358636    -0.07690
C2410       C  0.65190432  0.97029992  0.71704593    -0.08430
C2411       C  0.65049585  0.50019281  0.70062840    -0.02990
C2412       C  0.67932106  0.52815730  0.70090275     0.03830
N2413       N  0.68133044  0.55759111  0.68315454     0.66340
H2414       H  0.73020053  0.54768918  0.71754322     0.15240
H2415       H  0.62990376  0.94852752  0.71667037     0.14950
N2416       N  0.68101477  0.93342646  0.74818943     0.74040
O2417       O  0.69133518  0.59099809  0.68886155    -0.39410
O2418       O  0.67996064  0.54881008  0.66147627    -0.39350
O2419       O  0.65268590  0.92789912  0.76156971    -0.40050
O2420       O  0.70201366  0.90536749  0.74299150    -0.40120
C2421       C  0.71562110  0.55645053  0.76835087    -0.12400
C2422       C  0.74785701  0.53170639  0.76711767     0.04600
C2423       C  0.77813484  0.53960284  0.78347903    -0.07690
C2424       C  0.77699874  0.57200225  0.79790217    -0.08430
C2425       C  0.74557426  0.59654052  0.79819327    -0.02990
C2426       C  0.71431983  0.58831372  0.78339581     0.03830
N2427       N  0.68095565  0.61199504  0.78316844     0.66340
H2428       H  0.68992220  0.55091036  0.75840686     0.15240
H2429       H  0.80079103  0.57709039  0.80978754     0.14950
N2430       N  0.81044205  0.51506807  0.78633107     0.74040
O2431       O  0.67135539  0.62871383  0.76423635    -0.39410
O2432       O  0.65694873  0.60910680  0.79972576    -0.39350
O2433       O  0.84278298  0.52753996  0.78021911    -0.40050
O2434       O  0.80908919  0.48978975  0.80229276    -0.40120
C2435       C  0.72356340  0.95961206  0.78581765    -0.12400
C2436       C  0.75126230  0.96070165  0.76755076     0.04600
C2437       C  0.78059565  0.93167888  0.76826136    -0.07690
C2438       C  0.77821274  0.90214276  0.78500717    -0.08430
C2439       C  0.74921355  0.90083270  0.80184508    -0.02990
C2440       C  0.72193849  0.93021496  0.80245382     0.03830
N2441       N  0.69310789  0.93160021  0.82036904     0.66340
H2442       H  0.70169002  0.98148673  0.78670657     0.15240
H2443       H  0.80024129  0.88034483  0.78531988     0.14950
N2444       N  0.81463133  0.93203540  0.75408482     0.74040
O2445       O  0.69370636  0.95813202  0.83549120    -0.39410
O2446       O  0.66330785  0.91169655  0.81808185    -0.39350
O2447       O  0.83965885  0.95718220  0.75781074    -0.40050
O2448       O  0.82491449  0.90160474  0.74390178    -0.40120
C2449       C  0.58774352  0.71601644  0.04979315    -0.12400
C2450       C  0.60585587  0.75026564  0.05597475     0.04600
C2451       C  0.59548204  0.78420793  0.04395062    -0.07690
C2452       C  0.56499925  0.78358451  0.02779661    -0.08430
C2453       C  0.54553948  0.74960934  0.02223201    -0.02990
C2454       C  0.55841155  0.71460570  0.03274737     0.03830
N2455       N  0.54090010  0.67789908  0.02786036     0.66340
H2456       H  0.59613535  0.68996382  0.05877727     0.15240
H2457       H  0.55766321  0.80972723  0.01863632     0.14950
N2458       N  0.61705059  0.81884588  0.04661355     0.74040
O2459       O  0.55280843  0.64803662  0.03810522    -0.39410
O2460       O  0.51236760  0.67495335  0.01439369    -0.39350
O2461       O  0.65294589  0.81796714  0.04466950    -0.40050
O2462       O  0.60025402  0.85079675  0.04633004    -0.40120
C2463       C  0.92695337  0.73725431  0.06141442    -0.12400
C2464       C  0.89305657  0.75600909  0.05600317     0.04600
C2465       C  0.89123438  0.77944069  0.03567407    -0.07690
C2466       C  0.92324163  0.78124785  0.02060771    -0.08430
C2467       C  0.95662712  0.75942594  0.02472197    -0.02990
C2468       C  0.95937430  0.74087173  0.04723729     0.03830
N2469       N  0.99455475  0.73553438  0.05947384     0.66340
H2470       H  0.92955085  0.72283018  0.07838418     0.15240
H2471       H  0.92080413  0.79717457  0.00418694     0.14950
N2472       N  0.85675323  0.79924598  0.02902994     0.74040
O2473       O  0.00025071  0.70424615  0.07012173    -0.39410
O2474       O  0.01113584  0.76501834  0.06723743    -0.39350
O2475       O  0.85812464  0.82605602  0.01408554    -0.40050
O2476       O  0.82448823  0.78721023  0.03559982    -0.40120
C2477       C  0.56438076  0.71807125  0.97457137    -0.12400
C2478       C  0.54219496  0.75074620  0.97882218     0.04600
C2479       C  0.55201292  0.78524222  0.96649467    -0.07690
C2480       C  0.57982858  0.78342377  0.94839846    -0.08430
C2481       C  0.60254160  0.75075568  0.94530228    -0.02990
C2482       C  0.59732365  0.71983330  0.96076353     0.03830
N2483       N  0.62900971  0.69602415  0.96712086     0.66340
H2484       H  0.55997273  0.69281355  0.98508804     0.15240
H2485       H  0.58517031  0.80823522  0.93740648     0.14950
N2486       N  0.53408605  0.82177365  0.97147065     0.74040
O2487       O  0.62310805  0.66446701  0.97736960    -0.39410
O2488       O  0.66132373  0.71159256  0.96946576    -0.39350
O2489       O  0.50892743  0.82525501  0.98730543    -0.40050
O2490       O  0.54218748  0.85078998  0.95912039    -0.40120
C2491       C  0.89390697  0.71883961  0.96343463    -0.12400
C2492       C  0.90045256  0.73961934  0.94261952     0.04600
C2493       C  0.93560318  0.75839040  0.93987386    -0.07690
C2494       C  0.96120102  0.75972308  0.95888690    -0.08430
C2495       C  0.95487425  0.74071331  0.98057260    -0.02990
C2496       C  0.92068047  0.71840402  0.98218454     0.03830
N2497       N  0.91172922  0.69624404  0.00293206     0.66340
H2498       H  0.86745890  0.70303481  0.96520829     0.15240
H2499       H  0.98490281  0.77818408  0.95637799     0.14950
N2500       N  0.94694115  0.77482267  0.91761574     0.74040
O2501       O  0.87755484  0.69319184  0.00977150    -0.39410
O2502       O  0.93688140  0.67562972  0.01256520    -0.39350
O2503       O  0.92759640  0.80125503  0.90823260    -0.40050
O2504       O  0.97946302  0.76709828  0.90926013    -0.40120
C2505       C  0.84962754  0.97769855  0.28089927    -0.12400
C2506       C  0.85072383  0.50701642  0.29765961     0.04600
C2507       C  0.82278015  0.53590815  0.29680781    -0.07690
C2508       C  0.79267597  0.53284019  0.28069306    -0.08430
C2509       C  0.78838304  0.50090823  0.26549248    -0.02990
C2510       C  0.82026845  0.97525015  0.26407372     0.03830
N2511       N  0.82519535  0.94790666  0.24542126     0.66340
H2512       H  0.87250597  0.95680985  0.28050223     0.15240
H2513       H  0.77083156  0.55473652  0.28106659     0.14950
N2514       N  0.82276647  0.56713945  0.31318889     0.74040
O2515       O  0.83245397  0.95961693  0.22475589    -0.39410
O2516       O  0.83292432  0.91362751  0.25061086    -0.39350
O2517       O  0.84738302  0.59324774  0.31113998    -0.40050
O2518       O  0.79386771  0.57283793  0.32605424    -0.40120
C2519       C  0.71813256  0.99478617  0.29222380    -0.12400
C2520       C  0.71431970  0.49478581  0.26717060     0.04600
C2521       C  0.67657315  0.48824242  0.25813133    -0.07690
C2522       C  0.64506690  0.48828573  0.27360045    -0.08430
C2523       C  0.64979786  0.49423296  0.29791259    -0.02990
C2524       C  0.68676508  0.99639309  0.30736876     0.03830
N2525       N  0.69314191  0.99989668  0.33243047     0.66340
H2526       H  0.74547758  0.99357207  0.30083518     0.15240
H2527       H  0.61663192  0.48398841  0.26650086     0.14950
N2528       N  0.66957663  0.47918923  0.23372848     0.74040
O2529       O  0.71873145  0.98011940  0.34238950    -0.39410
O2530       O  0.67801483  0.52703442  0.34374141    -0.39350
O2531       O  0.65443267  0.94756428  0.22852698    -0.40050
O2532       O  0.67236323  0.50457553  0.21793823    -0.40120
C2533       C  0.78401943  0.54558687  0.22308207    -0.12400
C2534       C  0.75050091  0.53739625  0.23625034     0.04600
C2535       C  0.72106519  0.56590332  0.23547556    -0.07690
C2536       C  0.72261999  0.59498487  0.21825356    -0.08430
C2537       C  0.75470754  0.60002335  0.20383297    -0.02990
C2538       C  0.78659760  0.57643434  0.20753944     0.03830
N2539       N  0.82166388  0.58251066  0.19519427     0.66340
H2540       H  0.80845142  0.52684785  0.22415486     0.15240
H2541       H  0.69909132  0.61501368  0.21685907     0.14950
N2542       N  0.69093349  0.56826205  0.25255935     0.74040
O2543       O  0.84919282  0.59844715  0.20569868    -0.39410
O2544       O  0.82701838  0.56699024  0.17530898    -0.39350
O2545       O  0.69914181  0.57540634  0.27387312    -0.40050
O2546       O  0.65705155  0.57361846  0.24561068    -0.40120
C2547       C  0.74413272  0.89382269  0.22728202    -0.12400
C2548       C  0.74806475  0.89911815  0.20291136     0.04600
C2549       C  0.75121238  0.93626423  0.19358701    -0.07690
C2550       C  0.75076828  0.96738533  0.20907075    -0.08430
C2551       C  0.74955598  0.96303591  0.23407902    -0.02990
C2552       C  0.74495056  0.92487159  0.24299061     0.03830
N2553       N  0.73902804  0.91682522  0.26766803     0.66340
H2554       H  0.74087371  0.86511814  0.23426026     0.15240
H2555       H  0.75039098  0.99505590  0.20077161     0.14950
N2556       N  0.75479700  0.94322919  0.16847768     0.74040
O2557       O  0.71001672  0.89796643  0.27390895    -0.39410
O2558       O  0.76562310  0.92172565  0.28242685    -0.39350
O2559       O  0.73647451  0.92342673  0.15365115    -0.40050
O2560       O  0.77381558  0.97150070  0.16111932    -0.40120
loop_ 
_geom_bond_atom_site_label_1 
_geom_bond_atom_site_label_2 
_geom_bond_distance 
_geom_bond_site_symmetry_2 
_ccdc_geom_bond_type 
C1          C631   1.566       .  S
C1         C1229   1.573       .  S
C1         C1240   1.573       .  S
C1         C1254   1.578       .  S
C2          C547   1.535       .  S
C2          C575   1.540   1_554  S
C2         C1283   1.393       .  D
C3          C533   1.494       .  S
C3          C558   1.502   1_554  S
C3         C1282   1.393   1_455  D
C4          C516   1.561       .  S
C4         C1114   1.563       .  S
C4         C1128   1.573       .  S
C4         C1142   1.587       .  S
C5          C446   1.567       .  S
C5         C1698   1.572       .  S
C5         C1712   1.576   1_455  S
C5         C1740   1.581   1_455  S
C6          C376   1.498       .  S
C6          C404   1.492   1_554  S
C6          C647   1.367       .  D
C7          C362   1.495       .  S
C7          C390   1.498   1_554  S
C7          C646   1.367   1_545  D
N8            N9   1.320       .  A
N8           N14   1.317       .  A
N8          Mn37   2.197       .  S
N9           C16   1.352       .  A
N10          N12   1.315       .  A
N10          N11   1.320       .  A
N10         Mn26   2.203       .  S
N11          C17   1.354       .  A
N12          N13   1.316       .  A
N12         Mn37   2.176       .  S
N13          C17   1.348       .  A
N14          N15   1.320       .  A
N14         Mn26   2.204       .  S
N15          C16   1.353       .  A
C16         C407   1.477       .  S
C17         C519   1.469       .  S
N18          N24   1.315       .  A
N18          N19   1.324       .  A
N18         Mn48   2.219       .  S
N19          C27   1.356       .  A
N20          N21   1.320       .  A
N20          N22   1.317       .  A
N20         Mn26   2.218       .  S
N21          C28   1.354       .  A
N22          N23   1.323       .  A
N22         Mn48   2.205       .  S
N23          C28   1.352       .  A
N24          N25   1.320       .  A
N24         Mn26   2.195       .  S
N25          C27   1.350       .  A
Mn26        Cl50   2.541       .  S
C27         C463   1.475       .  S
C28         C572   1.481       .  S
N29          N30   1.323       .  A
N29          N35   1.314       .  A
N29         Mn37   2.202       .  S
N30          C38   1.355       .  A
N31          N33   1.317       .  A
N31          N32   1.324       .  A
N31         Mn49   2.237       .  S
N32          C39   1.360       .  A
N33          N34   1.319       .  A
N33         Mn37   2.188       .  S
N34          C39   1.349       .  A
N35          N36   1.318       .  A
N35         Mn49   2.196       .  S
N36          C38   1.352       .  A
Mn37        Cl50   2.552       .  S
C38         C449   1.481       .  S
C39         C561   1.487       .  S
N40          N41   1.324       .  A
N40          N46   1.316       .  A
N40         Mn48   2.206       .  S
N41          C51   1.355       .  A
N42          N43   1.321       .  A
N42          N44   1.316       .  A
N42         Mn49   2.204       .  S
N43          C52   1.353       .  A
N44          N45   1.318       .  A
N44         Mn48   2.199       .  S
N45          C52   1.354       .  A
N46          N47   1.317       .  A
N46         Mn49   2.205       .  S
N47          C51   1.354       .  A
Mn48        Cl50   2.554       .  S
Mn49        Cl50   2.542       .  S
C51         C393   1.489       .  S
C52         C505   1.482       .  S
N53          N54   1.320       .  A
N53          N59   1.314       .  A
N53         Mn82   2.196       .  S
N54          C61   1.352       .  A
N55          N57   1.316       .  A
N55          N56   1.320       .  A
N55         Mn71   2.198       .  S
N56          C62   1.353       .  A
N57          N58   1.321       .  A
N57         Mn82   2.213       .  S
N58          C62   1.356       .  A
N59          N60   1.320       .  A
N59         Mn71   2.198       .  S
N60          C61   1.352       .  A
C61         C334   1.467       .  S
C62         C530   1.487       .  S
N63          N69   1.314       .  A
N63          N64   1.319       .  A
N63         Mn93   2.187       .  S
N64          C72   1.351       .  A
N65          N66   1.319       .  A
N65          N67   1.316       .  A
N65         Mn71   2.196       .  S
N66          C73   1.351       .  A
N67          N68   1.319       .  A
N67         Mn93   2.197       .  S
N68          C73   1.352       .  A
N69          N70   1.321       .  A
N69         Mn71   2.210       .  S
N70          C72   1.356       .  A
Mn71        Cl95   2.547       .  S
C72         C379   1.481       .  S
C73         C628   1.463       .  S
N74          N75   1.321       .  A
N74          N80   1.314       .  A
N74         Mn82   2.205       .  S
N75          C83   1.356       .  A
N76          N78   1.315       .  A
N76          N77   1.319       .  A
N76         Mn94   2.198       .  S
N77          C84   1.353       .  A
N78          N79   1.320       .  A
N78         Mn82   2.201       .  S
N79          C84   1.354       .  A
N80          N81   1.320       .  A
N80         Mn94   2.200       .  S
N81          C83   1.353       .  A
Mn82        Cl95   2.540       .  S
C83         C365   1.490       .  S
C84         C617   1.480       .  S
N85          N86   1.317       .  A
N85          N91   1.314       .  A
N85         Mn93   2.189       .  S
N86          C96   1.351       .  A
N87          N88   1.319       .  A
N87          N89   1.316       .  A
N87         Mn94   2.205       .  S
N88          C97   1.354       .  A
N89          N90   1.320       .  A
N89         Mn93   2.197       .  S
N90          C97   1.351       .  A
N91          N92   1.322       .  A
N91         Mn94   2.198       .  S
N92          C96   1.354       .  A
Mn93        Cl95   2.538       .  S
Mn94        Cl95   2.548       .  S
C96         C348   1.476       .  S
C97         C544   1.470       .  S
N98          N99   1.319       .  A
N98         N744   1.315   1_545  A
N98        Mn127   2.192       .  S
N99         C106   1.352       .  A
N100        N101   1.324       .  A
N100        N742   1.317       .  A
N100       Mn116   2.223       .  S
N101        C747   1.356       .  A
N102        N103   1.319       .  A
N102        N740   1.317   1_545  A
N102       Mn127   2.194       .  S
N103        C107   1.349       .  A
N104        N105   1.320       .  A
N104        N738   1.315       .  A
N104       Mn116   2.200       .  S
N105        C746   1.353       .  A
C106        N745   1.353   1_545  A
C106        C491   1.476       .  S
C107        N741   1.356   1_545  A
C107        C278   1.474       .  S
N108        N109   1.321       .  A
N108       N1394   1.316       .  A
N108       Mn138   2.210       .  S
N109        C117   1.355       .  A
N110        N111   1.322       .  A
N110       N1392   1.317   1_455  A
N110       Mn116   2.214       .  S
N111       C1398   1.354   1_455  A
N112        N113   1.321       .  A
N112       N1390   1.317       .  A
N112       Mn138   2.206       .  S
N113        C118   1.352       .  A
N114        N115   1.321       .  A
N114       N1388   1.316   1_455  A
N114       Mn116   2.204       .  S
N115       C1397   1.353   1_455  A
Mn116     Cl2060   2.552   1_455  S
C117       N1395   1.353       .  A
C117        C320   1.490       .  S
C118       N1391   1.354       .  A
C118        C435   1.473       .  S
N119        N120   1.317       .  A
N119       N1405   1.314   1_455  A
N119       Mn127   2.191       .  S
N120       C1408   1.353   1_455  A
N121        N122   1.322       .  A
N121       N1403   1.315       .  A
N121       Mn139   2.215       .  S
N122        C129   1.356       .  A
N123        N124   1.319       .  A
N123       N1401   1.315   1_455  A
N123       Mn127   2.197       .  S
N124       C1409   1.353   1_455  A
N125        N126   1.321       .  A
N125       N1399   1.314       .  A
N125       Mn139   2.200       .  S
N126        C128   1.354       .  A
Mn127     Cl1420   2.542   1_455  S
C128       N1400   1.353       .  A
C128        C309   1.485       .  S
C129       N1404   1.353       .  A
C129        C421   1.488       .  S
N130        N131   1.320       .  A
N130        N776   1.315       .  A
N130       Mn138   2.197       .  S
N131        C781   1.352       .  A
N132        N133   1.319       .  A
N132        N774   1.317   1_545  A
N132       Mn139   2.211       .  S
N133        C142   1.354       .  A
N134        N135   1.323       .  A
N134        N772   1.317       .  A
N134       Mn138   2.214       .  S
N135        C782   1.356       .  A
N136        N137   1.318       .  A
N136        N770   1.315   1_545  A
N136       Mn139   2.188       .  S
N137        C141   1.351   1_545  A
Mn138      Cl780   2.546       .  S
Mn139      Cl140   2.550       .  S
Cl140     Mn2036   2.552   1_545  S
Cl140     Mn1407   2.542       .  S
Cl140      Mn778   2.546   1_545  S
C141        N771   1.352       .  A
C141        C477   1.474       .  S
C142        N775   1.356   1_545  A
C142        C295   1.489       .  S
N143        N144   1.319       .  A
N143       N1429   1.315       .  A
N143       Mn172   2.197       .  S
N144        C151   1.352       .  A
N145        N146   1.317       .  A
N145       N1427   1.316   1_455  A
N145       Mn161   2.192       .  S
N146       C1432   1.349   1_455  A
N147        N148   1.322       .  A
N147       N1425   1.316       .  A
N147       Mn172   2.205       .  S
N148        C152   1.355       .  A
N149        N150   1.320       .  A
N149       N1423   1.315   1_455  A
N149       Mn161   2.199       .  S
N150       C1431   1.354   1_455  A
C151       N1430   1.354       .  A
C151        C194   1.480       .  S
C152       N1426   1.349       .  A
C152        C239   1.475       .  S
N153        N154   1.319       .  A
N153        N799   1.317   1_545  A
N153       Mn183   2.217       .  S
N154        C162   1.355   1_545  A
N155        N156   1.321       .  A
N155        N797   1.315       .  A
N155       Mn161   2.194       .  S
N156        C803   1.351       .  A
N157        N158   1.320       .  A
N157        N795   1.315   1_545  A
N157       Mn183   2.205       .  S
N158        C163   1.353   1_545  A
N159        N160   1.324       .  A
N159        N793   1.317       .  A
N159       Mn161   2.208       .  S
N160        C802   1.353       .  A
Mn161     Cl2105   2.542   1_455  S
C162        N800   1.353       .  A
C162        C250   1.484       .  S
C163        N796   1.351       .  A
C163        C603   1.469       .  S
N164        N165   1.323       .  A
N164        N810   1.316       .  A
N164       Mn172   2.212       .  S
N165        C813   1.356       .  A
N166        N167   1.318       .  A
N166        N808   1.314   1_545  A
N166       Mn184   2.189       .  S
N167        C174   1.350       .  A
N168        N169   1.319       .  A
N168        N806   1.314       .  A
N168       Mn172   2.199       .  S
N169        C814   1.353       .  A
N170        N171   1.319       .  A
N170        N804   1.316   1_545  A
N170       Mn184   2.202       .  S
N171        C173   1.353       .  A
Mn172      Cl825   2.554       .  S
C173        N805   1.356   1_545  A
C173        C267   1.489       .  S
C174        N809   1.353   1_545  A
C174        C586   1.475       .  S
N175        N176   1.320       .  A
N175       N1461   1.315   1_455  A
N175       Mn183   2.197       .  S
N176       C1466   1.351       .  A
N177        N178   1.316       .  A
N177       N1459   1.316       .  A
N177       Mn184   2.190       .  S
N178        C187   1.349       .  A
N179        N180   1.325       .  A
N179       N1457   1.316   1_455  A
N179       Mn183   2.225       .  S
N180       C1467   1.360       .  A
N181        N182   1.321       .  A
N181       N1455   1.315       .  A
N181       Mn184   2.204       .  S
N182        C186   1.353       .  A
Mn183     Cl1465   2.550   1_445  S
Mn184      Cl185   2.539   1_545  S
Cl185     Mn2081   2.542       .  S
Cl185      Mn812   2.554       .  S
Cl185     Mn1463   2.550   1_565  S
C186       N1456   1.351       .  A
C186        C208   1.468       .  S
C187       N1460   1.360       .  A
C187        C222   1.491       .  S
C188        C236   1.495       .  S
C188        C323   1.503       .  S
C188        C189   1.373   1_655  D
C189        C225   1.500       .  S
C189        C306   1.491       .  S
C190        C264   1.496       .  S
C190        C292   1.503       .  S
C190        C191   1.395       .  D
C191        C253   1.525       .  S
C191        C281   1.546       .  S
C192        C197   1.576   1_455  S
C192        C211   1.571       .  S
C192        C337   1.572       .  S
C192       C1631   1.575   1_455  S
C193        C198   1.406       .  A
C193       C1474   1.400   1_455  A
C193        H200   1.084       .  S
C194        C195   1.406       .  A
C194       C1473   1.400       .  A
C195        C196   1.395       .  A
C195        N202   1.433       .  S
C196       C1477   1.418       .  A
C196        H201   1.080       .  S
C197        C198   1.434   1_655  A
C197       C1476   1.418       .  A
C198        N199   1.434       .  S
N199        O203   1.263       .  A
N199        O204   1.262       .  A
N202        O205   1.262       .  A
N202        O206   1.262       .  A
C207        C212   1.405       .  A
C207       C1488   1.396       .  A
C207        H214   1.084       .  S
C208        C209   1.406       .  A
C208       C1487   1.396       .  A
C209        C210   1.399       .  A
C209        N216   1.443       .  S
C210       C1491   1.421       .  A
C210        H215   1.075       .  S
C211        C212   1.434       .  A
C211       C1490   1.421       .  A
C212        N213   1.434       .  S
N213        O217   1.262       .  A
N213       O1498   1.261   1_455  A
N216        O220   1.263       .  A
N216       O1499   1.262       .  A
O218       N1493   1.261       .  A
O219       N1496   1.262   1_455  A
C221        C226   1.413       .  A
C221       C1502   1.405       .  A
C221        H228   1.083       .  S
C222        C223   1.414       .  A
C222       C1501   1.405       .  A
C223        C224   1.396       .  A
C223        N230   1.432       .  S
C224       C1505   1.403       .  A
C224        H229   1.082       .  S
C225        C226   1.421       .  A
C225       C1504   1.403   1_455  A
C226        N227   1.439       .  S
N227        O231   1.263       .  A
N227        O232   1.260       .  A
N230        O233   1.262       .  A
N230        O234   1.262       .  A
C235        C236   1.406   1_455  A
C235        C240   1.393       .  A
C235        H242   1.083       .  S
C236       C1517   1.421       .  A
C237        C238   1.408       .  A
C237       C1516   1.421       .  A
C237        N244   1.437       .  S
C238        C239   1.403       .  A
C238        H243   1.084       .  S
C239       C1520   1.407       .  A
C240       C1519   1.407   1_455  A
C240        N241   1.432       .  S
N241        O245   1.262       .  A
N241        O246   1.262       .  A
N244        O247   1.260       .  A
N244        O248   1.263       .  A
C249        C250   1.404       .  A
C249        C254   1.416       .  A
C249        H256   1.083       .  S
C250        C891   1.407   1_565  A
C251        C252   1.398       .  A
C251        C890   1.407       .  A
C251        N898   1.440       .  S
C252        C253   1.406       .  A
C252        H257   1.063       .  S
C253        C894   1.425       .  A
C254        C893   1.425       .  A
C254        N895   1.441       .  S
N255        C894   1.441       .  S
N255        O260   1.262       .  A
N255        O899   1.263       .  A
N258        C891   1.440       .  S
N258        O261   1.262       .  A
N258        O902   1.263       .  A
O259        N895   1.263       .  A
O262        N898   1.263       .  A
C263        C264   1.406       .  A
C263        C268   1.404       .  A
C263        H270   1.084       .  S
C264        C905   1.425       .  A
C265        C266   1.407       .  A
C265        C904   1.425       .  A
C265        N272   1.452       .  S
C266        C267   1.405       .  A
C266        H271   1.082       .  S
C267        C908   1.414   1_545  A
C268        C907   1.414       .  A
C268        N269   1.437       .  S
N269        O274   1.263       .  A
N269        O913   1.263       .  A
N272        O275   1.262       .  A
N272        O916   1.263       .  A
O273        N909   1.263       .  A
O276        N912   1.263       .  A
C277        C282   1.406       .  A
C277        C918   1.395       .  A
C277        H284   1.084       .  S
C278        C279   1.410       .  A
C278        C917   1.395       .  A
C279        C280   1.407       .  A
C279        N286   1.444       .  S
C280        C921   1.416       .  A
C280        H285   1.060       .  S
C281        C282   1.431       .  A
C281        C920   1.416       .  A
C282        N283   1.437       .  S
N283        O287   1.263       .  A
N283        O928   1.262       .  A
N286        O290   1.263       .  A
N286        O929   1.262   1_545  A
O288        N923   1.262       .  A
O289        N926   1.262       .  A
C291        C296   1.411       .  A
C291        C932   1.411   1_565  A
C291        H298   1.083       .  S
C292        C293   1.414       .  A
C292        C931   1.411       .  A
C293        C294   1.398       .  A
C293        N300   1.426       .  S
C294        C935   1.400       .  A
C294        H299   1.084       .  S
C295        C296   1.418   1_545  A
C295        C934   1.400       .  A
C296        N297   1.438       .  S
N297        O301   1.262       .  A
N297        O942   1.263       .  A
N300        O304   1.263       .  A
N300        O943   1.262       .  A
O302        N937   1.263       .  A
O303        N940   1.262       .  A
C305        C310   1.403       .  A
C305       C1586   1.404       .  A
C305        H312   1.082       .  S
C306        C307   1.412       .  A
C306       C1585   1.404   1_455  A
C307        C308   1.399       .  A
C307        N314   1.434       .  S
C308       C1589   1.404   1_455  A
C308        H313   1.083       .  S
C309        C310   1.415       .  A
C309       C1588   1.404       .  A
C310        N311   1.433       .  S
N311        O315   1.262       .  A
N311        O316   1.263       .  A
N314        O317   1.260       .  A
N314        O318   1.263       .  A
C319        C320   1.403       .  A
C319        C324   1.401       .  A
C319        H326   1.084       .  S
C320       C1601   1.418       .  A
C321        C322   1.405       .  A
C321       C1600   1.418   1_455  A
C321        N328   1.434       .  S
C322        C323   1.403   1_455  A
C322        H327   1.078       .  S
C323       C1604   1.411       .  A
C324       C1603   1.411       .  A
C324        N325   1.427       .  S
N325        O329   1.262       .  A
N325        O330   1.262       .  A
N328        O331   1.262       .  A
N328        O332   1.263       .  A
C333        C334   1.397       .  A
C333        C338   1.408       .  A
C333        H340   1.084       .  S
C334        C335   1.403       .  A
C335        C336   1.395       .  A
C335        N342   1.442       .  S
C336        C337   1.421       .  A
C336        H341   1.075       .  S
C337        C338   1.435       .  A
C338        N339   1.436       .  S
N339        O343   1.262       .  A
N339        O344   1.261       .  A
N342        O345   1.262       .  A
N342        O346   1.263       .  A
C347        C348   1.399       .  A
C347        C352   1.407       .  A
C347        H354   1.084       .  S
C348        C349   1.407       .  A
C349        C350   1.393       .  A
C349        N356   1.436       .  S
C350        C351   1.417       .  A
C350        H355   1.079       .  S
C351       C1472   1.575       .  S
C351        C352   1.433       .  A
C352        N353   1.434       .  S
N353        O357   1.262       .  A
N353        O358   1.263       .  A
N356        O359   1.262       .  A
N356        O360   1.263       .  A
C361        C362   1.401       .  A
C361        C366   1.398       .  A
C361        H368   1.080       .  S
C362        C363   1.424       .  A
C363        C364   1.412       .  A
C363        N370   1.448       .  S
C364        C365   1.406       .  A
C364        H369   1.082       .  S
C365        C366   1.413       .  A
C366        N367   1.432       .  S
N367        O371   1.262       .  A
N367        O372   1.262       .  A
N370        O373   1.260       .  A
N370        O374   1.263       .  A
C375        C376   1.403       .  A
C375        C380   1.405       .  A
C375        H382   1.082       .  S
C376        C377   1.417       .  A
C377        C378   1.398       .  A
C377        N384   1.431       .  S
C378        C379   1.399       .  A
C378        H383   1.083       .  S
C379        C380   1.417       .  A
C380        N381   1.436       .  S
N381        O385   1.263       .  A
N381        O386   1.262       .  A
N384        O387   1.261   1_554  A
N384        O388   1.262       .  A
C389        C390   1.398       .  A
C389        C394   1.391       .  A
C389        H396   1.078       .  S
C390        C391   1.417       .  A
C391        C392   1.410       .  A
C391        N398   1.429       .  S
C392        C393   1.405       .  A
C392        H397   1.083       .  S
C393        C394   1.410       .  A
C394        N395   1.424       .  S
N395        O399   1.262       .  A
N395        O400   1.259       .  A
N398        O401   1.262   1_545  A
N398        O402   1.261       .  A
C403        C404   1.404       .  A
C403        C408   1.407       .  A
C403        H410   1.083       .  S
C404        C405   1.412       .  A
C405        C406   1.397       .  A
C405        N412   1.432       .  S
C406        C407   1.398       .  A
C406        H411   1.084       .  S
C407        C408   1.418       .  A
C408        N409   1.438       .  S
N409        O413   1.263       .  A
N409        O414   1.263       .  A
N412        O415   1.260   1_556  A
N412        O416   1.261       .  A
C417        C418   1.410       .  A
C417        C422   1.401       .  A
C417        H424   1.076       .  S
C418       C1285   1.572       .  S
C418       C1699   1.433       .  A
C419        C420   1.400       .  A
C419       C1698   1.433       .  A
C419        N426   1.431       .  S
C420       C1701   1.400       .  A
C420        H425   1.084       .  S
C421        C422   1.409       .  A
C421       C1700   1.400       .  A
C422        N423   1.426       .  S
N423        O427   1.262       .  A
N423        O428   1.262       .  A
N426        O429   1.262       .  A
N426        O430   1.262       .  A
C431        C436   1.400       .  A
C431       C1712   1.422       .  A
C431        H438   1.076       .  S
C432       C1285   1.576       .  S
C432        C433   1.430       .  A
C432       C1711   1.422       .  A
C433        C434   1.407       .  A
C433        N440   1.431       .  S
C434        C435   1.399       .  A
C434        H439   1.084       .  S
C435       C1716   1.407       .  A
C436       C1715   1.407       .  A
C436        N437   1.443   1_655  S
N437        O441   1.263       .  A
N437        O442   1.262   1_455  A
N440        O443   1.262       .  A
N440        O444   1.262       .  A
C445        C446   1.416       .  A
C445        C450   1.410       .  A
C445        H452   1.078       .  S
C446        C447   1.430       .  A
C447        C448   1.393       .  A
C447        N454   1.433       .  S
C448        C449   1.396       .  A
C448        H453   1.084       .  S
C449        C450   1.413       .  A
C450        N451   1.439       .  S
N451        O455   1.263       .  A
N451        O456   1.263       .  A
N454        O457   1.262       .  A
N454        O458   1.262   1_455  A
C459        C460   1.422       .  A
C459        C464   1.401       .  A
C459        H466   1.078       .  S
C460       C1285   1.581       .  S
C460        C461   1.431       .  A
C461        C462   1.409       .  A
C461        N468   1.433       .  S
C462        C463   1.400       .  A
C462        H467   1.084       .  S
C463        C464   1.407       .  A
C464        N465   1.442       .  S
N465        O469   1.262       .  A
N465        O470   1.263       .  A
N468        O471   1.262       .  A
N468        O472   1.262       .  A
C473        C474   1.412   1_545  A
C473        C478   1.396       .  A
C473        H480   1.075       .  S
C474        C644   1.563       .  S
C474       C1115   1.433       .  A
C475        C476   1.399       .  A
C475       C1114   1.433       .  A
C475        N482   1.431       .  S
C476       C1117   1.396       .  A
C476        H481   1.084       .  S
C477        C478   1.406   1_565  A
C477       C1116   1.396       .  A
C478        N479   1.433       .  S
N479        O483   1.263       .  A
N479        O484   1.263       .  A
N482        O485   1.262       .  A
N482        O486   1.261       .  A
C487        C488   1.421   1_545  A
C487        C492   1.397       .  A
C487        H494   1.083       .  S
C488        C644   1.573       .  S
C488       C1129   1.437       .  A
C489        C490   1.403       .  A
C489       C1128   1.437       .  A
C489        N496   1.430       .  S
C490       C1131   1.397       .  A
C490        H495   1.084       .  S
C491        C492   1.407       .  A
C491       C1130   1.397   1_545  A
C492        N493   1.437       .  S
N493        O497   1.263       .  A
N493        O498   1.263       .  A
N496        O499   1.263       .  A
N496        O500   1.261       .  A
C501        C502   1.424       .  A
C501        C506   1.403       .  A
C501        H508   1.078       .  S
C502        C644   1.587   1_545  S
C502        C503   1.433       .  A
C503        C504   1.397       .  A
C503        N510   1.428       .  S
C504        C505   1.395       .  A
C504        H509   1.084       .  S
C505        C506   1.406       .  A
C506        N507   1.432       .  S
N507        O511   1.262       .  A
N507        O512   1.262       .  A
N510        O513   1.263       .  A
N510        O514   1.262   1_545  A
C515        C516   1.417       .  A
C515        C520   1.392       .  A
C515        H522   1.084       .  S
C516        C517   1.444       .  A
C517        C518   1.402       .  A
C517        N524   1.437       .  S
C518        C519   1.393       .  A
C518        H523   1.084       .  S
C519        C520   1.403       .  A
C520        N521   1.431       .  S
N521        O525   1.262       .  A
N521        O526   1.262       .  A
N524        O527   1.260       .  A
N524        O528   1.263       .  A
C529        C530   1.401       .  A
C529        C534   1.408       .  A
C529        H536   1.082       .  S
C530        C531   1.413       .  A
C531        C532   1.403       .  A
C531        N538   1.437       .  S
C532        C533   1.406       .  A
C532        H537   1.080       .  S
C533        C534   1.432       .  A
C534        N535   1.450       .  S
N535        O539   1.263       .  A
N535        O540   1.259       .  A
N538        O541   1.263       .  A
N538        O542   1.263       .  A
C543        C544   1.389       .  A
C543        C548   1.396       .  A
C543        H550   1.085       .  S
C544        C545   1.410       .  A
C545        C546   1.410       .  A
C545        N552   1.441       .  S
C546        C547   1.415       .  A
C546        H551   1.084       .  S
C547        C548   1.429       .  A
C548        N549   1.424       .  S
N549        O553   1.263       .  A
N549        O554   1.263       .  A
N552        O555   1.261       .  A
N552        O556   1.262       .  A
C557        C558   1.403       .  A
C557        C562   1.395       .  A
C557        H564   1.075       .  S
C558        C559   1.434       .  A
C559        C560   1.414       .  A
C559        N566   1.451       .  S
C560        C561   1.403       .  A
C560        H565   1.083       .  S
C561        C562   1.401       .  A
C562        N563   1.432       .  S
N563        O567   1.263       .  A
N563        O568   1.264       .  A
N566        O569   1.262       .  A
N566        O570   1.263       .  A
C571        C572   1.400       .  A
C571        C576   1.413       .  A
C571        H578   1.084       .  S
C572        C573   1.405       .  A
C573        C574   1.398       .  A
C573        N580   1.437       .  S
C574        C575   1.410       .  A
C574        H579   1.062       .  S
C575        C576   1.433       .  A
C576        N577   1.438   1_556  S
N577        O581   1.263       .  A
N577        O582   1.260       .  A
N580        O583   1.261       .  A
N580        O584   1.263       .  A
C585        C590   1.402       .  A
C585       C1226   1.397       .  A
C585        H592   1.084       .  S
C586        C587   1.407       .  A
C586       C1225   1.397   1_545  A
C587        C588   1.396       .  A
C587        N594   1.432       .  S
C588        C589   1.418       .  A
C588        H593   1.082       .  S
C589        C641   1.573   1_545  S
C589       C1230   1.434   1_545  A
C590       C1229   1.434       .  A
C590        N591   1.434       .  S
N591        O595   1.262       .  A
N591        O596   1.263       .  A
N594        O597   1.262       .  A
N594        O598   1.262       .  A
C599        C604   1.394       .  A
C599       C1240   1.420       .  A
C599        H606   1.074       .  S
C600        C641   1.573       .  S
C600        C601   1.435       .  A
C600       C1239   1.420       .  A
C601        C602   1.408       .  A
C601        N608   1.434       .  S
C602        C603   1.398       .  A
C602        H607   1.084       .  S
C603       C1244   1.402       .  A
C604       C1243   1.402       .  A
C604        N605   1.437       .  S
N605        O609   1.262       .  A
N605       O1250   1.262       .  A
N608        O612   1.261   1_565  A
N608       O1251   1.262       .  A
O610       N1245   1.262   1_545  A
O611       N1248   1.262       .  A
C613        C614   1.420       .  A
C613        C618   1.392       .  A
C613        H620   1.079       .  S
C614        C641   1.578   1_545  S
C614        C615   1.434       .  A
C615        C616   1.407       .  A
C615        N622   1.433       .  S
C616        C617   1.400       .  A
C616        H621   1.084       .  S
C617        C618   1.403       .  A
C618        N619   1.429       .  S
N619        O623   1.262       .  A
N619        O624   1.262       .  A
N622        O625   1.262       .  A
N622        O626   1.263       .  A
C627        C628   1.395       .  A
C627        C632   1.403       .  A
C627        H634   1.084       .  S
C628        C629   1.405       .  A
C629        C630   1.397       .  A
C629        N636   1.443       .  S
C630        C631   1.420       .  A
C630        H635   1.075       .  S
C631        C632   1.435       .  A
C632        N633   1.436       .  S
N633        O637   1.262       .  A
N633        O638   1.261       .  A
N636        O639   1.262       .  A
N636        O640   1.263       .  A
C641       C1271   1.566       .  S
C642       C1187   1.535       .  S
C642       C1215   1.540   1_554  S
C642       C1923   1.393       .  D
C643       C1173   1.494       .  S
C643       C1198   1.501   1_554  S
C643       C1922   1.393   1_455  D
C644       C1156   1.561       .  S
C645       C2338   1.572       .  S
C645       C2352   1.576   1_455  S
C645       C1086   1.567       .  S
C645       C2380   1.581   1_455  S
C646       C1016   1.498       .  S
C646       C1044   1.492   1_554  S
C647       C1002   1.495       .  S
C647       C1030   1.498   1_554  S
N648        N649   1.320       .  A
N648        N654   1.317       .  A
N648       Mn677   2.197       .  S
N649        C656   1.352       .  A
N650        N652   1.315       .  A
N650        N651   1.320       .  A
N650       Mn666   2.203       .  S
N651        C657   1.354       .  A
N652        N653   1.316       .  A
N652       Mn677   2.176       .  S
N653        C657   1.348       .  A
N654        N655   1.320       .  A
N654       Mn666   2.204       .  S
N655        C656   1.353       .  A
C656       C1047   1.477       .  S
C657       C1159   1.469       .  S
N658        N664   1.315       .  A
N658        N659   1.324       .  A
N658       Mn688   2.219       .  S
N659        C667   1.356       .  A
N660        N661   1.320       .  A
N660        N662   1.317       .  A
N660       Mn666   2.217       .  S
N661        C668   1.354       .  A
N662        N663   1.323       .  A
N662       Mn688   2.205       .  S
N663        C668   1.352       .  A
N664        N665   1.320       .  A
N664       Mn666   2.195       .  S
N665        C667   1.350       .  A
Mn666      Cl690   2.541       .  S
C667       C1103   1.475       .  S
C668       C1212   1.481       .  S
N669        N670   1.323       .  A
N669        N675   1.314       .  A
N669       Mn677   2.202       .  S
N670        C678   1.355       .  A
N671        N673   1.317       .  A
N671        N672   1.324       .  A
N671       Mn689   2.237       .  S
N672        C679   1.360       .  A
N673        N674   1.319       .  A
N673       Mn677   2.188       .  S
N674        C679   1.349       .  A
N675        N676   1.318       .  A
N675       Mn689   2.196       .  S
N676        C678   1.352       .  A
Mn677      Cl690   2.552       .  S
C678       C1089   1.481       .  S
C679       C1201   1.487       .  S
N680        N681   1.324       .  A
N680        N686   1.316       .  A
N680       Mn688   2.206       .  S
N681        C691   1.355       .  A
N682        N683   1.321       .  A
N682        N684   1.316       .  A
N682       Mn689   2.204       .  S
N683        C692   1.353       .  A
N684        N685   1.318       .  A
N684       Mn688   2.199       .  S
N685        C692   1.354       .  A
N686        N687   1.317       .  A
N686       Mn689   2.205       .  S
N687        C691   1.354       .  A
Mn688      Cl690   2.554       .  S
Mn689      Cl690   2.542       .  S
C691       C1033   1.489       .  S
C692       C1145   1.482       .  S
N693        N694   1.320       .  A
N693        N699   1.314       .  A
N693       Mn722   2.196       .  S
N694        C701   1.352       .  A
N695        N697   1.316       .  A
N695        N696   1.320       .  A
N695       Mn711   2.198       .  S
N696        C702   1.353       .  A
N697        N698   1.321       .  A
N697       Mn722   2.213       .  S
N698        C702   1.356       .  A
N699        N700   1.320       .  A
N699       Mn711   2.198       .  S
N700        C701   1.352       .  A
C701        C974   1.467       .  S
C702       C1170   1.487       .  S
N703        N709   1.314       .  A
N703        N704   1.319       .  A
N703       Mn733   2.187       .  S
N704        C712   1.351       .  A
N705        N706   1.319       .  A
N705        N707   1.316       .  A
N705       Mn711   2.196       .  S
N706        C713   1.351       .  A
N707        N708   1.319       .  A
N707       Mn733   2.197       .  S
N708        C713   1.352       .  A
N709        N710   1.321       .  A
N709       Mn711   2.210       .  S
N710        C712   1.356       .  A
Mn711      Cl735   2.547       .  S
C712       C1019   1.481       .  S
C713       C1268   1.463       .  S
N714        N715   1.321       .  A
N714        N720   1.314       .  A
N714       Mn722   2.205       .  S
N715        C723   1.356       .  A
N716        N718   1.315       .  A
N716        N717   1.319       .  A
N716       Mn734   2.198       .  S
N717        C724   1.353       .  A
N718        N719   1.320       .  A
N718       Mn722   2.201       .  S
N719        C724   1.354       .  A
N720        N721   1.320       .  A
N720       Mn734   2.200       .  S
N721        C723   1.353       .  A
Mn722      Cl735   2.540       .  S
C723       C1005   1.490       .  S
C724       C1257   1.480       .  S
N725        N726   1.317       .  A
N725        N731   1.314       .  A
N725       Mn733   2.189       .  S
N726        C736   1.351       .  A
N727        N728   1.319       .  A
N727        N729   1.316       .  A
N727       Mn734   2.205       .  S
N728        C737   1.354       .  A
N729        N730   1.320       .  A
N729       Mn733   2.197       .  S
N730        C737   1.351       .  A
N731        N732   1.322       .  A
N731       Mn734   2.198       .  S
N732        C736   1.354       .  A
Mn733      Cl735   2.538       .  S
Mn734      Cl735   2.548       .  S
C736        C988   1.476       .  S
C737       C1184   1.470       .  S
N738        N739   1.319       .  A
N738       Mn767   2.192       .  S
N739        C746   1.352       .  A
N740        N741   1.324       .  A
N740       Mn756   2.223       .  S
N742        N743   1.319       .  A
N742       Mn767   2.194       .  S
N743        C747   1.349       .  A
N744        N745   1.320       .  A
N744       Mn756   2.200       .  S
C746       C1131   1.476       .  S
C747        C918   1.474       .  S
N748       N2034   1.316       .  A
N748        N749   1.321       .  A
N748       Mn778   2.210       .  S
N749        C757   1.355       .  A
N750        N751   1.322       .  A
N750       N2032   1.317   1_455  A
N750       Mn756   2.214       .  S
N751       C2038   1.354   1_455  A
N752       N2030   1.317       .  A
N752        N753   1.321       .  A
N752       Mn778   2.206       .  S
N753        C758   1.352       .  A
N754       N2028   1.316   1_455  A
N754        N755   1.321       .  A
N754       Mn756   2.204       .  S
N755       C2037   1.353   1_455  A
Mn756     Cl1420   2.552   1_465  S
C757       N2035   1.353       .  A
C757        C960   1.490       .  S
C758       N2031   1.354       .  A
C758       C1075   1.473       .  S
N759        N760   1.317       .  A
N759       N2045   1.314   1_455  A
N759       Mn767   2.191       .  S
N760       C2048   1.353   1_455  A
N761       N2043   1.315       .  A
N761        N762   1.322       .  A
N761       Mn779   2.215       .  S
N762        C769   1.356       .  A
N763       N2041   1.315   1_455  A
N763        N764   1.319       .  A
N763       Mn767   2.197       .  S
N764       C2049   1.353   1_455  A
N765       N2039   1.314       .  A
N765        N766   1.321       .  A
N765       Mn779   2.200       .  S
N766        C768   1.354       .  A
Mn767     Cl2060   2.542   1_455  S
C768       N2040   1.353       .  A
C768        C949   1.485       .  S
C769       N2044   1.353       .  A
C769       C1061   1.488       .  S
N770        N771   1.320       .  A
N770       Mn778   2.197       .  S
N772        N773   1.319       .  A
N772       Mn779   2.211       .  S
N773        C782   1.354       .  A
N774        N775   1.323       .  A
N774       Mn778   2.214       .  S
N776        N777   1.318       .  A
N776       Mn779   2.188       .  S
N777        C781   1.351       .  A
Mn779      Cl780   2.550       .  S
Cl780     Mn1396   2.552       .  S
Cl780     Mn2047   2.542       .  S
C781       C1117   1.474       .  S
C782        C935   1.489       .  S
N783        N784   1.319       .  A
N783       N2069   1.315       .  A
N783       Mn812   2.197       .  S
N784        C791   1.352       .  A
N785       N2067   1.316   1_455  A
N785        N786   1.317       .  A
N785       Mn801   2.192       .  S
N786       C2072   1.349   1_455  A
N787       N2065   1.316       .  A
N787        N788   1.322       .  A
N787       Mn812   2.205       .  S
N788        C792   1.355       .  A
N789       N2063   1.315   1_455  A
N789        N790   1.320       .  A
N789       Mn801   2.199       .  S
N790       C2071   1.354   1_455  A
C791       N2070   1.354       .  A
C791        C834   1.480       .  S
C792       N2066   1.349       .  A
C792        C879   1.475       .  S
N793        N794   1.319       .  A
N793       Mn823   2.217       .  S
N794        C802   1.355       .  A
N795        N796   1.321       .  A
N795       Mn801   2.194       .  S
N797        N798   1.320       .  A
N797       Mn823   2.205       .  S
N798        C803   1.353       .  A
N799        N800   1.324       .  A
N799       Mn801   2.208       .  S
Mn801     Cl1465   2.542   1_455  S
C802        C890   1.484       .  S
C803       C1243   1.469       .  S
N804        N805   1.323       .  A
N804       Mn812   2.212       .  S
N806        N807   1.318       .  A
N806       Mn824   2.189       .  S
N807        C814   1.350       .  A
N808        N809   1.319       .  A
N808       Mn812   2.199       .  S
N810        N811   1.319       .  A
N810       Mn824   2.202       .  S
N811        C813   1.353       .  A
C813        C907   1.489       .  S
C814       C1226   1.475       .  S
N815        N816   1.320       .  A
N815       N2101   1.315   1_455  A
N815       Mn823   2.197       .  S
N816       C2106   1.351       .  A
N817        N818   1.316       .  A
N817       N2099   1.316       .  A
N817       Mn824   2.190       .  S
N818        C827   1.349       .  A
N819       N2097   1.316   1_455  A
N819        N820   1.325       .  A
N819       Mn823   2.225       .  S
N820       C2107   1.360       .  A
N821       N2095   1.315       .  A
N821        N822   1.321       .  A
N821       Mn824   2.204       .  S
N822        C826   1.353       .  A
Mn823     Cl2105   2.550   1_455  S
Mn824      Cl825   2.539       .  S
Cl825     Mn1441   2.542       .  S
Cl825     Mn2103   2.550       .  S
C826       N2096   1.351       .  A
C826        C848   1.468       .  S
C827       N2100   1.360       .  A
C827        C862   1.491       .  S
C828        C876   1.495       .  S
C828        C963   1.503       .  S
C828        C829   1.373   1_655  D
C829        C865   1.500       .  S
C829        C946   1.491       .  S
C830        C904   1.496       .  S
C830        C932   1.503       .  S
C830        C831   1.395       .  D
C831        C893   1.525   1_545  S
C831        C921   1.546       .  S
C832        C837   1.576   1_455  S
C832        C851   1.571       .  S
C832        C977   1.572       .  S
C832       C2271   1.575   1_455  S
C833       C2114   1.400   1_455  A
C833        C838   1.406       .  A
C833        H840   1.084       .  S
C834       C2113   1.400       .  A
C834        C835   1.406       .  A
C835        C836   1.395       .  A
C835        N842   1.433       .  S
C836       C2117   1.418       .  A
C836        H841   1.080       .  S
C837       C2116   1.418       .  A
C837        C838   1.434   1_655  A
C838        N839   1.434       .  S
N839        O843   1.263       .  A
N839        O844   1.262       .  A
N842        O845   1.262       .  A
N842        O846   1.262       .  A
C847       C2128   1.396       .  A
C847        C852   1.405       .  A
C847        H854   1.084       .  S
C848       C2127   1.396       .  A
C848        C849   1.406       .  A
C849        C850   1.399       .  A
C849        N856   1.443       .  S
C850       C2131   1.421       .  A
C850        H855   1.075       .  S
C851       C2130   1.421       .  A
C851        C852   1.434       .  A
C852        N853   1.434       .  S
N853        O857   1.262       .  A
N853       O2138   1.261   1_455  A
N856       O2139   1.262       .  A
N856        O860   1.263       .  A
O858       N2133   1.261       .  A
O859       N2136   1.262   1_455  A
C861       C2142   1.405       .  A
C861        C866   1.413       .  A
C861        H868   1.083       .  S
C862       C2141   1.405       .  A
C862        C863   1.414       .  A
C863        C864   1.396       .  A
C863        N870   1.432       .  S
C864       C2145   1.403       .  A
C864        H869   1.082       .  S
C865       C2144   1.403   1_455  A
C865        C866   1.421       .  A
C866        N867   1.439       .  S
N867        O871   1.263       .  A
N867        O872   1.260       .  A
N870        O873   1.262       .  A
N870        O874   1.262       .  A
C875        C876   1.406   1_455  A
C875        C880   1.393       .  A
C875        H882   1.083       .  S
C876       C2157   1.421       .  A
C877       C2156   1.421       .  A
C877        C878   1.408       .  A
C877        N884   1.437       .  S
C878        C879   1.403       .  A
C878        H883   1.084       .  S
C879       C2160   1.407       .  A
C880       C2159   1.407   1_455  A
C880        N881   1.432       .  S
N881        O885   1.262       .  A
N881        O886   1.262       .  A
N884        O887   1.260       .  A
N884        O888   1.263       .  A
C889        C890   1.404       .  A
C889        C894   1.416       .  A
C889        H896   1.083       .  S
C891        C892   1.398       .  A
C892        C893   1.406   1_545  A
C892        H897   1.063       .  S
N895        O900   1.262       .  A
N898        O901   1.262       .  A
C903        C904   1.406   1_565  A
C903        C908   1.404       .  A
C903        H910   1.084       .  S
C905        C906   1.407       .  A
C905        N912   1.452       .  S
C906        C907   1.405       .  A
C906        H911   1.082       .  S
C908        N909   1.437       .  S
N909        O914   1.263       .  A
N912        O915   1.262       .  A
C917        C922   1.406       .  A
C917        H924   1.084       .  S
C918        C919   1.410       .  A
C919        C920   1.407       .  A
C919        N926   1.444       .  S
C920        H925   1.060       .  S
C921        C922   1.431       .  A
C922        N923   1.437       .  S
N923        O927   1.263       .  A
N926        O930   1.263       .  A
C931        C936   1.411       .  A
C931        H938   1.083       .  S
C932        C933   1.414       .  A
C933        C934   1.398       .  A
C933        N940   1.426       .  S
C934        H939   1.084       .  S
C935        C936   1.418       .  A
C936        N937   1.438       .  S
N937        O941   1.262       .  A
N940        O944   1.263       .  A
C945       C2226   1.404       .  A
C945        C950   1.403       .  A
C945        H952   1.082       .  S
C946       C2225   1.404   1_455  A
C946        C947   1.412       .  A
C947        C948   1.399       .  A
C947        N954   1.434       .  S
C948       C2229   1.404   1_455  A
C948        H953   1.083       .  S
C949       C2228   1.404       .  A
C949        C950   1.415       .  A
C950        N951   1.433       .  S
N951        O955   1.262       .  A
N951        O956   1.263       .  A
N954        O957   1.260       .  A
N954        O958   1.263       .  A
C959        C960   1.403       .  A
C959        C964   1.401       .  A
C959        H966   1.084       .  S
C960       C2241   1.418       .  A
C961       C2240   1.418   1_455  A
C961        C962   1.405       .  A
C961        N968   1.434       .  S
C962        C963   1.403   1_455  A
C962        H967   1.078       .  S
C963       C2244   1.411       .  A
C964       C2243   1.411       .  A
C964        N965   1.427       .  S
N965        O969   1.262       .  A
N965        O970   1.262       .  A
N968        O971   1.262       .  A
N968        O972   1.263       .  A
C973        C974   1.397       .  A
C973        C978   1.408       .  A
C973        H980   1.084       .  S
C974        C975   1.403       .  A
C975        C976   1.395       .  A
C975        N982   1.442       .  S
C976        C977   1.421       .  A
C976        H981   1.075       .  S
C977        C978   1.435       .  A
C978        N979   1.436       .  S
N979        O983   1.262       .  A
N979        O984   1.261       .  A
N982        O985   1.262       .  A
N982        O986   1.263       .  A
C987        C988   1.399       .  A
C987        C992   1.407       .  A
C987        H994   1.084       .  S
C988        C989   1.407       .  A
C989        C990   1.393       .  A
C989        N996   1.436       .  S
C990        C991   1.417       .  A
C990        H995   1.079       .  S
C991       C2112   1.575       .  S
C991        C992   1.433       .  A
C992        N993   1.434       .  S
N993        O997   1.262       .  A
N993        O998   1.263       .  A
N996        O999   1.262       .  A
N996       O1000   1.263       .  A
C1001      C1002   1.401       .  A
C1001      C1006   1.398       .  A
C1001      H1008   1.080       .  S
C1002      C1003   1.424       .  A
C1003      C1004   1.412       .  A
C1003      N1010   1.448       .  S
C1004      C1005   1.406       .  A
C1004      H1009   1.082       .  S
C1005      C1006   1.413       .  A
C1006      N1007   1.432       .  S
N1007      O1011   1.262       .  A
N1007      O1012   1.262       .  A
N1010      O1013   1.260       .  A
N1010      O1014   1.263       .  A
C1015      C1016   1.403       .  A
C1015      C1020   1.405       .  A
C1015      H1022   1.082       .  S
C1016      C1017   1.417       .  A
C1017      C1018   1.398       .  A
C1017      N1024   1.431       .  S
C1018      C1019   1.399       .  A
C1018      H1023   1.083       .  S
C1019      C1020   1.417       .  A
C1020      N1021   1.436       .  S
N1021      O1025   1.263       .  A
N1021      O1026   1.262       .  A
N1024      O1027   1.261   1_554  A
N1024      O1028   1.262       .  A
C1029      C1030   1.398       .  A
C1029      C1034   1.391       .  A
C1029      H1036   1.078       .  S
C1030      C1031   1.417       .  A
C1031      C1032   1.410       .  A
C1031      N1038   1.429       .  S
C1032      C1033   1.405       .  A
C1032      H1037   1.083       .  S
C1033      C1034   1.410       .  A
C1034      N1035   1.424       .  S
N1035      O1039   1.262       .  A
N1035      O1040   1.259       .  A
N1038      O1041   1.262       .  A
N1038      O1042   1.261       .  A
C1043      C1044   1.404       .  A
C1043      C1048   1.407       .  A
C1043      H1050   1.083       .  S
C1044      C1045   1.412       .  A
C1045      C1046   1.397       .  A
C1045      N1052   1.432       .  S
C1046      C1047   1.398       .  A
C1046      H1051   1.084       .  S
C1047      C1048   1.418       .  A
C1048      N1049   1.438       .  S
N1049      O1053   1.263       .  A
N1049      O1054   1.263       .  A
N1052      O1055   1.260   1_556  A
N1052      O1056   1.261       .  A
C1057      C1058   1.410       .  A
C1057      C1062   1.401       .  A
C1057      H1064   1.076       .  S
C1058      C1925   1.572       .  S
C1058      C2339   1.433       .  A
C1059      C2338   1.433       .  A
C1059      C1060   1.400       .  A
C1059      N1066   1.431       .  S
C1060      C2341   1.400       .  A
C1060      H1065   1.084       .  S
C1061      C2340   1.400       .  A
C1061      C1062   1.409       .  A
C1062      N1063   1.426       .  S
N1063      O1067   1.262       .  A
N1063      O1068   1.262       .  A
N1066      O1069   1.262       .  A
N1066      O1070   1.262       .  A
C1071      C2352   1.422       .  A
C1071      C1076   1.400       .  A
C1071      H1078   1.076       .  S
C1072      C1925   1.576       .  S
C1072      C2351   1.422       .  A
C1072      C1073   1.430       .  A
C1073      C1074   1.407       .  A
C1073      N1080   1.431       .  S
C1074      C1075   1.399       .  A
C1074      H1079   1.084       .  S
C1075      C2356   1.407       .  A
C1076      C2355   1.407       .  A
C1076      N1077   1.443   1_655  S
N1077      O1081   1.263       .  A
N1077      O1082   1.262   1_455  A
N1080      O1083   1.262       .  A
N1080      O1084   1.262       .  A
C1085      C1086   1.416       .  A
C1085      C1090   1.410       .  A
C1085      H1092   1.078       .  S
C1086      C1087   1.430       .  A
C1087      C1088   1.393       .  A
C1087      N1094   1.433       .  S
C1088      C1089   1.396       .  A
C1088      H1093   1.084       .  S
C1089      C1090   1.413       .  A
C1090      N1091   1.439       .  S
N1091      O1095   1.263       .  A
N1091      O1096   1.263       .  A
N1094      O1097   1.262       .  A
N1094      O1098   1.262   1_455  A
C1099      C1100   1.422       .  A
C1099      C1104   1.401       .  A
C1099      H1106   1.078       .  S
C1100      C1925   1.581       .  S
C1100      C1101   1.431       .  A
C1101      C1102   1.409       .  A
C1101      N1108   1.433       .  S
C1102      C1103   1.400       .  A
C1102      H1107   1.084       .  S
C1103      C1104   1.407       .  A
C1104      N1105   1.442       .  S
N1105      O1109   1.262       .  A
N1105      O1110   1.263       .  A
N1108      O1111   1.262       .  A
N1108      O1112   1.262       .  A
C1113      C1114   1.412       .  A
C1113      C1118   1.396       .  A
C1113      H1120   1.075       .  S
C1115      C1116   1.399       .  A
C1115      N1122   1.431       .  S
C1116      H1121   1.084       .  S
C1117      C1118   1.406       .  A
C1118      N1119   1.433       .  S
N1119      O1123   1.263       .  A
N1119      O1124   1.263       .  A
N1122      O1125   1.262       .  A
N1122      O1126   1.261       .  A
C1127      C1128   1.421       .  A
C1127      C1132   1.397       .  A
C1127      H1134   1.083       .  S
C1129      C1130   1.403       .  A
C1129      N1136   1.430       .  S
C1130      H1135   1.084       .  S
C1131      C1132   1.407       .  A
C1132      N1133   1.437       .  S
N1133      O1137   1.263       .  A
N1133      O1138   1.263       .  A
N1136      O1139   1.263       .  A
N1136      O1140   1.261       .  A
C1141      C1142   1.424       .  A
C1141      C1146   1.403       .  A
C1141      H1148   1.078       .  S
C1142      C1143   1.433       .  A
C1143      C1144   1.397       .  A
C1143      N1150   1.428       .  S
C1144      C1145   1.395       .  A
C1144      H1149   1.084       .  S
C1145      C1146   1.406       .  A
C1146      N1147   1.432       .  S
N1147      O1151   1.262       .  A
N1147      O1152   1.262       .  A
N1150      O1153   1.263       .  A
N1150      O1154   1.262       .  A
C1155      C1156   1.417       .  A
C1155      C1160   1.392       .  A
C1155      H1162   1.084       .  S
C1156      C1157   1.444       .  A
C1157      C1158   1.402       .  A
C1157      N1164   1.437       .  S
C1158      C1159   1.393       .  A
C1158      H1163   1.084       .  S
C1159      C1160   1.403       .  A
C1160      N1161   1.431       .  S
N1161      O1165   1.262       .  A
N1161      O1166   1.262       .  A
N1164      O1167   1.260       .  A
N1164      O1168   1.263       .  A
C1169      C1170   1.401       .  A
C1169      C1174   1.408       .  A
C1169      H1176   1.082       .  S
C1170      C1171   1.413       .  A
C1171      C1172   1.403       .  A
C1171      N1178   1.437       .  S
C1172      C1173   1.406       .  A
C1172      H1177   1.080       .  S
C1173      C1174   1.432       .  A
C1174      N1175   1.450       .  S
N1175      O1179   1.263       .  A
N1175      O1180   1.259       .  A
N1178      O1181   1.263       .  A
N1178      O1182   1.263       .  A
C1183      C1184   1.389       .  A
C1183      C1188   1.396       .  A
C1183      H1190   1.085       .  S
C1184      C1185   1.410       .  A
C1185      C1186   1.410       .  A
C1185      N1192   1.441       .  S
C1186      C1187   1.415       .  A
C1186      H1191   1.084       .  S
C1187      C1188   1.429       .  A
C1188      N1189   1.424       .  S
N1189      O1193   1.263       .  A
N1189      O1194   1.263       .  A
N1192      O1195   1.261       .  A
N1192      O1196   1.262       .  A
C1197      C1198   1.403       .  A
C1197      C1202   1.395       .  A
C1197      H1204   1.075       .  S
C1198      C1199   1.434       .  A
C1199      C1200   1.414       .  A
C1199      N1206   1.451       .  S
C1200      C1201   1.403       .  A
C1200      H1205   1.083       .  S
C1201      C1202   1.401       .  A
C1202      N1203   1.432       .  S
N1203      O1207   1.263       .  A
N1203      O1208   1.264       .  A
N1206      O1209   1.262       .  A
N1206      O1210   1.263       .  A
C1211      C1212   1.400       .  A
C1211      C1216   1.413       .  A
C1211      H1218   1.084       .  S
C1212      C1213   1.405       .  A
C1213      C1214   1.398       .  A
C1213      N1220   1.437       .  S
C1214      C1215   1.410       .  A
C1214      H1219   1.062       .  S
C1215      C1216   1.433       .  A
C1216      N1217   1.438   1_556  S
N1217      O1221   1.263       .  A
N1217      O1222   1.260       .  A
N1220      O1223   1.261       .  A
N1220      O1224   1.263       .  A
C1225      C1230   1.402       .  A
C1225      H1232   1.084       .  S
C1226      C1227   1.407       .  A
C1227      C1228   1.396       .  A
C1227      N1234   1.432       .  S
C1228      C1229   1.418       .  A
C1228      H1233   1.082       .  S
C1230      N1231   1.434       .  S
N1231      O1235   1.262       .  A
N1231      O1236   1.263       .  A
N1234      O1237   1.262       .  A
N1234      O1238   1.262       .  A
C1239      C1244   1.394       .  A
C1239      H1246   1.074       .  S
C1240      C1241   1.435       .  A
C1241      C1242   1.408       .  A
C1241      N1248   1.434       .  S
C1242      C1243   1.398       .  A
C1242      H1247   1.084       .  S
C1244      N1245   1.437       .  S
N1245      O1249   1.262       .  A
N1248      O1252   1.261       .  A
C1253      C1254   1.420       .  A
C1253      C1258   1.392       .  A
C1253      H1260   1.079       .  S
C1254      C1255   1.434       .  A
C1255      C1256   1.407       .  A
C1255      N1262   1.433       .  S
C1256      C1257   1.400       .  A
C1256      H1261   1.084       .  S
C1257      C1258   1.403       .  A
C1258      N1259   1.429       .  S
N1259      O1263   1.262       .  A
N1259      O1264   1.262       .  A
N1262      O1265   1.262       .  A
N1262      O1266   1.263       .  A
C1267      C1268   1.395       .  A
C1267      C1272   1.403       .  A
C1267      H1274   1.084       .  S
C1268      C1269   1.405       .  A
C1269      C1270   1.397       .  A
C1269      N1276   1.443       .  S
C1270      C1271   1.420       .  A
C1270      H1275   1.075       .  S
C1271      C1272   1.435       .  A
C1272      N1273   1.436       .  S
N1273      O1277   1.262       .  A
N1273      O1278   1.261       .  A
N1276      O1279   1.262       .  A
N1276      O1280   1.263       .  A
C1281      C2509   1.573       .  S
C1281      C2520   1.573       .  S
C1281      C2534   1.578       .  S
C1281      C1911   1.566       .  S
C1282      C1827   1.535       .  S
C1282      C1855   1.540   1_554  S
C1283      C1813   1.494       .  S
C1283      C1838   1.502   1_554  S
C1284      C2394   1.563       .  S
C1284      C2408   1.573       .  S
C1284      C2422   1.587       .  S
C1284      C1796   1.561       .  S
C1285      C1726   1.567       .  S
C1286      C1656   1.498       .  S
C1286      C1684   1.492   1_554  S
C1286      C1927   1.367       .  D
C1287      C1642   1.495       .  S
C1287      C1670   1.498   1_554  S
C1287      C1926   1.367   1_545  D
N1288      N1289   1.320       .  A
N1288      N1294   1.317       .  A
N1288     Mn1317   2.197       .  S
N1289      C1296   1.352       .  A
N1290      N1292   1.315       .  A
N1290      N1291   1.320       .  A
N1290     Mn1306   2.203       .  S
N1291      C1297   1.354       .  A
N1292      N1293   1.316       .  A
N1292     Mn1317   2.176       .  S
N1293      C1297   1.348       .  A
N1294      N1295   1.320       .  A
N1294     Mn1306   2.204       .  S
N1295      C1296   1.353       .  A
C1296      C1687   1.477       .  S
C1297      C1799   1.469       .  S
N1298      N1304   1.315       .  A
N1298      N1299   1.324       .  A
N1298     Mn1328   2.219       .  S
N1299      C1307   1.356       .  A
N1300      N1301   1.320       .  A
N1300      N1302   1.317       .  A
N1300     Mn1306   2.218       .  S
N1301      C1308   1.354       .  A
N1302      N1303   1.323       .  A
N1302     Mn1328   2.205       .  S
N1303      C1308   1.352       .  A
N1304      N1305   1.320       .  A
N1304     Mn1306   2.195       .  S
N1305      C1307   1.350       .  A
Mn1306    Cl1330   2.541       .  S
C1307      C1743   1.475       .  S
C1308      C1852   1.481       .  S
N1309      N1310   1.323       .  A
N1309      N1315   1.314       .  A
N1309     Mn1317   2.202       .  S
N1310      C1318   1.355       .  A
N1311      N1313   1.317       .  A
N1311      N1312   1.324       .  A
N1311     Mn1329   2.237       .  S
N1312      C1319   1.360       .  A
N1313      N1314   1.319       .  A
N1313     Mn1317   2.188       .  S
N1314      C1319   1.349       .  A
N1315      N1316   1.318       .  A
N1315     Mn1329   2.196       .  S
N1316      C1318   1.352       .  A
Mn1317    Cl1330   2.552       .  S
C1318      C1729   1.481       .  S
C1319      C1841   1.487       .  S
N1320      N1321   1.324       .  A
N1320      N1326   1.316       .  A
N1320     Mn1328   2.206       .  S
N1321      C1331   1.355       .  A
N1322      N1323   1.321       .  A
N1322      N1324   1.316       .  A
N1322     Mn1329   2.204       .  S
N1323      C1332   1.353       .  A
N1324      N1325   1.318       .  A
N1324     Mn1328   2.199       .  S
N1325      C1332   1.354       .  A
N1326      N1327   1.317       .  A
N1326     Mn1329   2.205       .  S
N1327      C1331   1.354       .  A
Mn1328    Cl1330   2.554       .  S
Mn1329    Cl1330   2.542       .  S
C1331      C1673   1.489       .  S
C1332      C1785   1.482       .  S
N1333      N1334   1.320       .  A
N1333      N1339   1.314       .  A
N1333     Mn1362   2.196       .  S
N1334      C1341   1.352       .  A
N1335      N1337   1.316       .  A
N1335      N1336   1.320       .  A
N1335     Mn1351   2.198       .  S
N1336      C1342   1.353       .  A
N1337      N1338   1.321       .  A
N1337     Mn1362   2.213       .  S
N1338      C1342   1.356       .  A
N1339      N1340   1.320       .  A
N1339     Mn1351   2.198       .  S
N1340      C1341   1.352       .  A
C1341      C1614   1.467       .  S
C1342      C1810   1.487       .  S
N1343      N1349   1.314       .  A
N1343      N1344   1.319       .  A
N1343     Mn1373   2.187       .  S
N1344      C1352   1.351       .  A
N1345      N1346   1.319       .  A
N1345      N1347   1.316       .  A
N1345     Mn1351   2.196       .  S
N1346      C1353   1.351       .  A
N1347      N1348   1.319       .  A
N1347     Mn1373   2.197       .  S
N1348      C1353   1.352       .  A
N1349      N1350   1.321       .  A
N1349     Mn1351   2.210       .  S
N1350      C1352   1.356       .  A
Mn1351    Cl1375   2.547       .  S
C1352      C1659   1.481       .  S
C1353      C1908   1.463       .  S
N1354      N1355   1.321       .  A
N1354      N1360   1.314       .  A
N1354     Mn1362   2.205       .  S
N1355      C1363   1.356       .  A
N1356      N1358   1.315       .  A
N1356      N1357   1.319       .  A
N1356     Mn1374   2.198       .  S
N1357      C1364   1.353       .  A
N1358      N1359   1.320       .  A
N1358     Mn1362   2.201       .  S
N1359      C1364   1.354       .  A
N1360      N1361   1.320       .  A
N1360     Mn1374   2.200       .  S
N1361      C1363   1.353       .  A
Mn1362    Cl1375   2.540       .  S
C1363      C1645   1.490       .  S
C1364      C1897   1.480       .  S
N1365      N1366   1.317       .  A
N1365      N1371   1.314       .  A
N1365     Mn1373   2.189       .  S
N1366      C1376   1.351       .  A
N1367      N1368   1.319       .  A
N1367      N1369   1.316       .  A
N1367     Mn1374   2.205       .  S
N1368      C1377   1.354       .  A
N1369      N1370   1.320       .  A
N1369     Mn1373   2.197       .  S
N1370      C1377   1.351       .  A
N1371      N1372   1.322       .  A
N1371     Mn1374   2.198       .  S
N1372      C1376   1.354       .  A
Mn1373    Cl1375   2.538       .  S
Mn1374    Cl1375   2.548       .  S
C1376      C1628   1.476       .  S
C1377      C1824   1.470       .  S
N1378      N1379   1.319       .  A
N1378      N2024   1.315   1_545  A
N1378     Mn1407   2.192       .  S
N1379      C1386   1.352       .  A
N1380      N2022   1.317       .  A
N1380      N1381   1.324       .  A
N1380     Mn1396   2.223       .  S
N1381      C2027   1.356       .  A
N1382      N2020   1.317   1_545  A
N1382      N1383   1.319       .  A
N1382     Mn1407   2.194       .  S
N1383      C1387   1.349       .  A
N1384      N2018   1.315       .  A
N1384      N1385   1.320       .  A
N1384     Mn1396   2.200       .  S
N1385      C2026   1.353       .  A
C1386      N2025   1.353   1_545  A
C1386      C1771   1.476       .  S
C1387      N2021   1.356   1_545  A
C1387      C1558   1.474       .  S
N1388      N1389   1.321       .  A
N1388     Mn1418   2.210       .  S
N1389      C1397   1.355       .  A
N1390      N1391   1.322       .  A
N1390     Mn1396   2.214       .  S
N1392      N1393   1.321       .  A
N1392     Mn1418   2.206       .  S
N1393      C1398   1.352       .  A
N1394      N1395   1.321       .  A
N1394     Mn1396   2.204       .  S
C1397      C1600   1.490       .  S
C1398      C1715   1.473       .  S
N1399      N1400   1.317       .  A
N1399     Mn1407   2.191       .  S
N1401      N1402   1.322       .  A
N1401     Mn1419   2.215       .  S
N1402      C1409   1.356       .  A
N1403      N1404   1.319       .  A
N1403     Mn1407   2.197       .  S
N1405      N1406   1.321       .  A
N1405     Mn1419   2.200       .  S
N1406      C1408   1.354       .  A
C1408      C1589   1.485       .  S
C1409      C1701   1.488   1_655  S
N1410      N1411   1.320       .  A
N1410      N2056   1.315       .  A
N1410     Mn1418   2.197       .  S
N1411      C2061   1.352       .  A
N1412      N1413   1.319       .  A
N1412      N2054   1.317   1_545  A
N1412     Mn1419   2.211       .  S
N1413      C1422   1.354       .  A
N1414      N2052   1.317       .  A
N1414      N1415   1.323       .  A
N1414     Mn1418   2.214       .  S
N1415      C2062   1.356       .  A
N1416      N2050   1.315   1_545  A
N1416      N1417   1.318       .  A
N1416     Mn1419   2.188       .  S
N1417      C1421   1.351   1_545  A
Mn1418    Cl2060   2.546       .  S
Mn1419    Cl1420   2.550       .  S
Cl1420    Mn2058   2.546   1_545  S
C1421      N2051   1.352       .  A
C1421      C1757   1.474       .  S
C1422      N2055   1.356   1_545  A
C1422      C1575   1.489       .  S
N1423      N1424   1.319       .  A
N1423     Mn1452   2.197       .  S
N1424      C1431   1.352       .  A
N1425      N1426   1.317       .  A
N1425     Mn1441   2.192       .  S
N1427      N1428   1.322       .  A
N1427     Mn1452   2.205       .  S
N1428      C1432   1.355       .  A
N1429      N1430   1.320       .  A
N1429     Mn1441   2.199       .  S
C1431      C1474   1.480       .  S
C1432      C1519   1.475       .  S
N1433      N2079   1.317   1_545  A
N1433      N1434   1.319       .  A
N1433     Mn1463   2.217       .  S
N1434      C1442   1.355   1_545  A
N1435      N1436   1.321       .  A
N1435      N2077   1.315       .  A
N1435     Mn1441   2.194       .  S
N1436      C2083   1.351       .  A
N1437      N2075   1.315   1_545  A
N1437      N1438   1.320       .  A
N1437     Mn1463   2.205       .  S
N1438      C1443   1.353   1_545  A
N1439      N2073   1.317       .  A
N1439      N1440   1.324       .  A
N1439     Mn1441   2.208       .  S
N1440      C2082   1.353       .  A
C1442      N2080   1.353       .  A
C1442      C1530   1.484       .  S
C1443      N2076   1.351       .  A
C1443      C1883   1.469       .  S
N1444      N1445   1.323       .  A
N1444      N2090   1.316       .  A
N1444     Mn1452   2.212       .  S
N1445      C2093   1.356       .  A
N1446      N2088   1.314   1_545  A
N1446      N1447   1.318       .  A
N1446     Mn1464   2.189       .  S
N1447      C1454   1.350       .  A
N1448      N2086   1.314       .  A
N1448      N1449   1.319       .  A
N1448     Mn1452   2.199       .  S
N1449      C2094   1.353       .  A
N1450      N2084   1.316   1_545  A
N1450      N1451   1.319       .  A
N1450     Mn1464   2.202       .  S
N1451      C1453   1.353       .  A
Mn1452    Cl2105   2.554       .  S
C1453      N2085   1.356   1_545  A
C1453      C1547   1.489       .  S
C1454      N2089   1.353   1_545  A
C1454      C1866   1.475       .  S
N1455      N1456   1.320       .  A
N1455     Mn1463   2.197       .  S
N1457      N1458   1.316       .  A
N1457     Mn1464   2.190       .  S
N1458      C1467   1.349   1_655  A
N1459      N1460   1.325       .  A
N1459     Mn1463   2.225       .  S
N1461      N1462   1.321       .  A
N1461     Mn1464   2.204       .  S
N1462      C1466   1.353   1_655  A
Mn1464    Cl1465   2.539   1_545  S
Cl1465    Mn2092   2.554       .  S
C1466      C1488   1.468       .  S
C1467      C1502   1.491       .  S
C1468      C1516   1.495       .  S
C1468      C1603   1.503       .  S
C1468      C1469   1.373       .  D
C1469      C1505   1.500       .  S
C1469      C1586   1.491       .  S
C1470      C1544   1.496       .  S
C1470      C1572   1.503       .  S
C1470      C1471   1.395       .  D
C1471      C1533   1.525       .  S
C1471      C1561   1.546       .  S
C1472      C1477   1.576       .  S
C1472      C1491   1.571       .  S
C1472      C1617   1.572       .  S
C1473      C1478   1.406       .  A
C1473      H1480   1.084       .  S
C1474      C1475   1.406       .  A
C1475      C1476   1.395       .  A
C1475      N1482   1.433       .  S
C1476      H1481   1.080       .  S
C1477      C1478   1.434       .  A
C1478      N1479   1.434       .  S
N1479      O1483   1.263       .  A
N1479      O1484   1.262       .  A
N1482      O1485   1.262       .  A
N1482      O1486   1.262       .  A
C1487      C1492   1.405       .  A
C1487      H1494   1.084       .  S
C1488      C1489   1.406       .  A
C1489      C1490   1.399       .  A
C1489      N1496   1.443   1_455  S
C1490      H1495   1.075       .  S
C1491      C1492   1.434       .  A
C1492      N1493   1.434       .  S
N1493      O1497   1.262       .  A
N1496      O1500   1.263       .  A
C1501      C1506   1.413       .  A
C1501      H1508   1.083       .  S
C1502      C1503   1.414   1_455  A
C1503      C1504   1.396       .  A
C1503      N1510   1.432       .  S
C1504      H1509   1.082       .  S
C1505      C1506   1.421       .  A
C1506      N1507   1.439       .  S
N1507      O1511   1.263       .  A
N1507      O1512   1.260       .  A
N1510      O1513   1.262       .  A
N1510      O1514   1.262       .  A
C1515      C1516   1.406       .  A
C1515      C1520   1.393       .  A
C1515      H1522   1.083       .  S
C1517      C1518   1.408       .  A
C1517      N1524   1.437       .  S
C1518      C1519   1.403       .  A
C1518      H1523   1.084       .  S
C1520      N1521   1.432       .  S
N1521      O1525   1.262       .  A
N1521      O1526   1.262       .  A
N1524      O1527   1.260       .  A
N1524      O1528   1.263       .  A
C1529      C1530   1.404       .  A
C1529      C1534   1.416       .  A
C1529      H1536   1.083       .  S
C1530      C2171   1.407   1_565  A
C1531      C2170   1.407       .  A
C1531      C1532   1.398       .  A
C1531      N2178   1.440       .  S
C1532      C1533   1.406       .  A
C1532      H1537   1.063       .  S
C1533      C2174   1.425       .  A
C1534      C2173   1.425       .  A
C1534      N2175   1.441       .  S
N1535      C2174   1.441       .  S
N1535      O2179   1.263       .  A
N1535      O1540   1.262       .  A
N1538      C2171   1.440       .  S
N1538      O1541   1.262       .  A
N1538      O2182   1.263       .  A
O1539      N2175   1.263       .  A
O1542      N2178   1.263       .  A
C1543      C1544   1.406       .  A
C1543      C1548   1.404       .  A
C1543      H1550   1.084       .  S
C1544      C2185   1.425       .  A
C1545      C2184   1.425       .  A
C1545      C1546   1.407       .  A
C1545      N1552   1.452       .  S
C1546      C1547   1.405       .  A
C1546      H1551   1.082       .  S
C1547      C2188   1.414   1_545  A
C1548      C2187   1.414       .  A
C1548      N1549   1.437       .  S
N1549      O2193   1.263       .  A
N1549      O1554   1.263       .  A
N1552      O1555   1.262       .  A
N1552      O2196   1.263       .  A
O1553      N2189   1.263       .  A
O1556      N2192   1.263       .  A
C1557      C2198   1.395       .  A
C1557      C1562   1.406       .  A
C1557      H1564   1.084       .  S
C1558      C2197   1.395       .  A
C1558      C1559   1.410       .  A
C1559      C1560   1.407       .  A
C1559      N1566   1.444       .  S
C1560      C2201   1.416       .  A
C1560      H1565   1.060       .  S
C1561      C2200   1.416       .  A
C1561      C1562   1.431       .  A
C1562      N1563   1.437       .  S
N1563      O1567   1.263       .  A
N1563      O2208   1.262       .  A
N1566      O2209   1.262   1_545  A
N1566      O1570   1.263       .  A
O1568      N2203   1.262       .  A
O1569      N2206   1.262       .  A
C1571      C2212   1.411   1_565  A
C1571      C1576   1.411       .  A
C1571      H1578   1.083       .  S
C1572      C2211   1.411       .  A
C1572      C1573   1.414       .  A
C1573      C1574   1.398       .  A
C1573      N1580   1.426       .  S
C1574      C2215   1.400       .  A
C1574      H1579   1.084       .  S
C1575      C2214   1.400       .  A
C1575      C1576   1.418   1_545  A
C1576      N1577   1.438       .  S
N1577      O1581   1.262       .  A
N1577      O2222   1.263       .  A
N1580      O2223   1.262       .  A
N1580      O1584   1.263       .  A
O1582      N2217   1.263       .  A
O1583      N2220   1.262       .  A
C1585      C1590   1.403       .  A
C1585      H1592   1.082       .  S
C1586      C1587   1.412       .  A
C1587      C1588   1.399       .  A
C1587      N1594   1.434       .  S
C1588      H1593   1.083       .  S
C1589      C1590   1.415       .  A
C1590      N1591   1.433       .  S
N1591      O1595   1.262       .  A
N1591      O1596   1.263       .  A
N1594      O1597   1.260       .  A
N1594      O1598   1.263       .  A
C1599      C1600   1.403       .  A
C1599      C1604   1.401       .  A
C1599      H1606   1.084       .  S
C1601      C1602   1.405       .  A
C1601      N1608   1.434       .  S
C1602      C1603   1.403       .  A
C1602      H1607   1.078       .  S
C1604      N1605   1.427       .  S
N1605      O1609   1.262       .  A
N1605      O1610   1.262       .  A
N1608      O1611   1.262       .  A
N1608      O1612   1.263       .  A
C1613      C1614   1.397       .  A
C1613      C1618   1.408       .  A
C1613      H1620   1.084       .  S
C1614      C1615   1.403       .  A
C1615      C1616   1.395       .  A
C1615      N1622   1.442       .  S
C1616      C1617   1.421       .  A
C1616      H1621   1.075       .  S
C1617      C1618   1.435       .  A
C1618      N1619   1.436       .  S
N1619      O1623   1.262       .  A
N1619      O1624   1.261       .  A
N1622      O1625   1.262       .  A
N1622      O1626   1.263       .  A
C1627      C1628   1.399       .  A
C1627      C1632   1.407       .  A
C1627      H1634   1.084       .  S
C1628      C1629   1.407       .  A
C1629      C1630   1.393       .  A
C1629      N1636   1.436       .  S
C1630      C1631   1.417       .  A
C1630      H1635   1.079       .  S
C1631      C1632   1.433       .  A
C1632      N1633   1.434       .  S
N1633      O1637   1.262       .  A
N1633      O1638   1.263       .  A
N1636      O1639   1.262       .  A
N1636      O1640   1.263       .  A
C1641      C1642   1.401       .  A
C1641      C1646   1.398       .  A
C1641      H1648   1.080       .  S
C1642      C1643   1.424       .  A
C1643      C1644   1.412       .  A
C1643      N1650   1.448       .  S
C1644      C1645   1.406       .  A
C1644      H1649   1.082       .  S
C1645      C1646   1.413       .  A
C1646      N1647   1.432       .  S
N1647      O1651   1.262       .  A
N1647      O1652   1.262       .  A
N1650      O1653   1.260       .  A
N1650      O1654   1.263       .  A
C1655      C1656   1.403       .  A
C1655      C1660   1.405       .  A
C1655      H1662   1.082       .  S
C1656      C1657   1.417       .  A
C1657      C1658   1.398       .  A
C1657      N1664   1.431       .  S
C1658      C1659   1.399       .  A
C1658      H1663   1.083       .  S
C1659      C1660   1.417       .  A
C1660      N1661   1.436       .  S
N1661      O1665   1.263       .  A
N1661      O1666   1.262       .  A
N1664      O1667   1.261   1_554  A
N1664      O1668   1.262       .  A
C1669      C1670   1.398       .  A
C1669      C1674   1.391       .  A
C1669      H1676   1.078       .  S
C1670      C1671   1.417       .  A
C1671      C1672   1.410       .  A
C1671      N1678   1.429       .  S
C1672      C1673   1.405       .  A
C1672      H1677   1.083       .  S
C1673      C1674   1.410       .  A
C1674      N1675   1.424       .  S
N1675      O1679   1.262       .  A
N1675      O1680   1.259       .  A
N1678      O1681   1.262   1_545  A
N1678      O1682   1.261       .  A
C1683      C1684   1.404       .  A
C1683      C1688   1.407       .  A
C1683      H1690   1.083       .  S
C1684      C1685   1.412       .  A
C1685      C1686   1.397       .  A
C1685      N1692   1.432       .  S
C1686      C1687   1.398       .  A
C1686      H1691   1.084       .  S
C1687      C1688   1.418       .  A
C1688      N1689   1.438       .  S
N1689      O1693   1.263       .  A
N1689      O1694   1.263       .  A
N1692      O1695   1.260   1_556  A
N1692      O1696   1.261       .  A
C1697      C1698   1.410   1_655  A
C1697      C1702   1.401       .  A
C1697      H1704   1.076       .  S
C1699      C1700   1.400       .  A
C1699      N1706   1.431       .  S
C1700      H1705   1.084       .  S
C1701      C1702   1.409   1_455  A
C1702      N1703   1.426       .  S
N1703      O1707   1.262       .  A
N1703      O1708   1.262       .  A
N1706      O1709   1.262       .  A
N1706      O1710   1.262       .  A
C1711      C1716   1.400       .  A
C1711      H1718   1.076       .  S
C1712      C1713   1.430       .  A
C1713      C1714   1.407       .  A
C1713      N1720   1.431       .  S
C1714      C1715   1.399       .  A
C1714      H1719   1.084       .  S
C1716      N1717   1.443       .  S
N1717      O1721   1.263       .  A
N1717      O1722   1.262       .  A
N1720      O1723   1.262   1_655  A
N1720      O1724   1.262       .  A
C1725      C1726   1.416       .  A
C1725      C1730   1.410       .  A
C1725      H1732   1.078       .  S
C1726      C1727   1.430       .  A
C1727      C1728   1.393       .  A
C1727      N1734   1.433       .  S
C1728      C1729   1.396       .  A
C1728      H1733   1.084       .  S
C1729      C1730   1.413       .  A
C1730      N1731   1.439       .  S
N1731      O1735   1.263       .  A
N1731      O1736   1.263       .  A
N1734      O1737   1.262       .  A
N1734      O1738   1.262       .  A
C1739      C1740   1.422       .  A
C1739      C1744   1.401       .  A
C1739      H1746   1.078       .  S
C1740      C1741   1.431       .  A
C1741      C1742   1.409       .  A
C1741      N1748   1.433       .  S
C1742      C1743   1.400       .  A
C1742      H1747   1.084       .  S
C1743      C1744   1.407       .  A
C1744      N1745   1.442       .  S
N1745      O1749   1.262       .  A
N1745      O1750   1.263       .  A
N1748      O1751   1.262       .  A
N1748      O1752   1.262       .  A
C1753      C1754   1.412   1_545  A
C1753      C1758   1.396       .  A
C1753      H1760   1.075       .  S
C1754      C1924   1.563       .  S
C1754      C2395   1.433       .  A
C1755      C2394   1.433       .  A
C1755      C1756   1.399       .  A
C1755      N1762   1.431       .  S
C1756      C2397   1.396       .  A
C1756      H1761   1.084       .  S
C1757      C2396   1.396       .  A
C1757      C1758   1.406   1_565  A
C1758      N1759   1.433       .  S
N1759      O1763   1.263       .  A
N1759      O1764   1.263       .  A
N1762      O1765   1.262       .  A
N1762      O1766   1.261       .  A
C1767      C1768   1.421   1_545  A
C1767      C1772   1.397       .  A
C1767      H1774   1.083       .  S
C1768      C1924   1.573       .  S
C1768      C2409   1.437       .  A
C1769      C2408   1.437       .  A
C1769      C1770   1.403       .  A
C1769      N1776   1.430       .  S
C1770      C2411   1.397       .  A
C1770      H1775   1.084       .  S
C1771      C2410   1.397   1_545  A
C1771      C1772   1.407       .  A
C1772      N1773   1.437       .  S
N1773      O1777   1.263       .  A
N1773      O1778   1.263       .  A
N1776      O1779   1.263       .  A
N1776      O1780   1.261       .  A
C1781      C1782   1.424       .  A
C1781      C1786   1.403       .  A
C1781      H1788   1.078       .  S
C1782      C1924   1.587   1_545  S
C1782      C1783   1.433       .  A
C1783      C1784   1.397       .  A
C1783      N1790   1.428       .  S
C1784      C1785   1.395       .  A
C1784      H1789   1.084       .  S
C1785      C1786   1.406       .  A
C1786      N1787   1.432       .  S
N1787      O1791   1.262       .  A
N1787      O1792   1.262       .  A
N1790      O1793   1.263       .  A
N1790      O1794   1.262   1_545  A
C1795      C1796   1.417       .  A
C1795      C1800   1.392       .  A
C1795      H1802   1.084       .  S
C1796      C1797   1.444       .  A
C1797      C1798   1.402       .  A
C1797      N1804   1.437       .  S
C1798      C1799   1.393       .  A
C1798      H1803   1.084       .  S
C1799      C1800   1.403       .  A
C1800      N1801   1.431       .  S
N1801      O1805   1.262       .  A
N1801      O1806   1.262       .  A
N1804      O1807   1.260       .  A
N1804      O1808   1.263       .  A
C1809      C1810   1.401       .  A
C1809      C1814   1.408       .  A
C1809      H1816   1.082       .  S
C1810      C1811   1.413       .  A
C1811      C1812   1.403       .  A
C1811      N1818   1.437       .  S
C1812      C1813   1.406       .  A
C1812      H1817   1.080       .  S
C1813      C1814   1.432       .  A
C1814      N1815   1.450       .  S
N1815      O1819   1.263       .  A
N1815      O1820   1.259       .  A
N1818      O1821   1.263       .  A
N1818      O1822   1.263       .  A
C1823      C1824   1.389       .  A
C1823      C1828   1.396       .  A
C1823      H1830   1.085       .  S
C1824      C1825   1.410       .  A
C1825      C1826   1.410       .  A
C1825      N1832   1.441       .  S
C1826      C1827   1.415       .  A
C1826      H1831   1.084       .  S
C1827      C1828   1.429       .  A
C1828      N1829   1.424       .  S
N1829      O1833   1.263   1_655  A
N1829      O1834   1.263   1_655  A
N1832      O1835   1.261       .  A
N1832      O1836   1.262       .  A
C1837      C1838   1.403       .  A
C1837      C1842   1.395       .  A
C1837      H1844   1.075       .  S
C1838      C1839   1.434       .  A
C1839      C1840   1.414       .  A
C1839      N1846   1.451       .  S
C1840      C1841   1.403       .  A
C1840      H1845   1.083       .  S
C1841      C1842   1.401       .  A
C1842      N1843   1.432       .  S
N1843      O1847   1.263       .  A
N1843      O1848   1.264       .  A
N1846      O1849   1.262       .  A
N1846      O1850   1.263       .  A
C1851      C1852   1.400       .  A
C1851      C1856   1.413       .  A
C1851      H1858   1.084       .  S
C1852      C1853   1.405       .  A
C1853      C1854   1.398       .  A
C1853      N1860   1.437       .  S
C1854      C1855   1.410       .  A
C1854      H1859   1.063       .  S
C1855      C1856   1.433       .  A
C1856      N1857   1.438   1_556  S
N1857      O1861   1.263       .  A
N1857      O1862   1.260       .  A
N1860      O1863   1.261       .  A
N1860      O1864   1.263       .  A
C1865      C2506   1.397       .  A
C1865      C1870   1.402       .  A
C1865      H1872   1.084       .  S
C1866      C2505   1.397   1_545  A
C1866      C1867   1.407       .  A
C1867      C1868   1.396       .  A
C1867      N1874   1.432       .  S
C1868      C1869   1.418       .  A
C1868      H1873   1.082       .  S
C1869      C1921   1.573   1_545  S
C1869      C2510   1.434   1_545  A
C1870      C2509   1.434       .  A
C1870      N1871   1.434       .  S
N1871      O1875   1.262       .  A
N1871      O1876   1.263       .  A
N1874      O1877   1.262       .  A
N1874      O1878   1.262       .  A
C1879      C2520   1.420       .  A
C1879      C1884   1.394       .  A
C1879      H1886   1.074       .  S
C1880      C1921   1.573       .  S
C1880      C2519   1.420       .  A
C1880      C1881   1.435       .  A
C1881      C1882   1.408       .  A
C1881      N1888   1.434       .  S
C1882      C1883   1.398       .  A
C1882      H1887   1.084       .  S
C1883      C2524   1.402       .  A
C1884      C2523   1.402       .  A
C1884      N1885   1.437       .  S
N1885      O1889   1.262       .  A
N1885      O2530   1.262       .  A
N1888      O2531   1.262       .  A
N1888      O1892   1.261   1_565  A
O1890      N2525   1.262   1_545  A
O1891      N2528   1.262       .  A
C1893      C1894   1.420       .  A
C1893      C1898   1.392       .  A
C1893      H1900   1.079       .  S
C1894      C1921   1.578   1_545  S
C1894      C1895   1.434       .  A
C1895      C1896   1.407       .  A
C1895      N1902   1.433       .  S
C1896      C1897   1.400       .  A
C1896      H1901   1.084       .  S
C1897      C1898   1.403       .  A
C1898      N1899   1.429       .  S
N1899      O1903   1.262       .  A
N1899      O1904   1.262       .  A
N1902      O1905   1.262       .  A
N1902      O1906   1.263       .  A
C1907      C1908   1.395       .  A
C1907      C1912   1.403       .  A
C1907      H1914   1.084       .  S
C1908      C1909   1.405       .  A
C1909      C1910   1.397       .  A
C1909      N1916   1.443       .  S
C1910      C1911   1.420       .  A
C1910      H1915   1.075       .  S
C1911      C1912   1.435       .  A
C1912      N1913   1.436       .  S
N1913      O1917   1.262       .  A
N1913      O1918   1.261       .  A
N1916      O1919   1.262       .  A
N1916      O1920   1.263       .  A
C1921      C2551   1.566       .  S
C1922      C2467   1.535       .  S
C1922      C2495   1.540   1_554  S
C1923      C2453   1.494       .  S
C1923      C2478   1.501   1_554  S
C1924      C2436   1.561       .  S
C1925      C2366   1.567       .  S
C1926      C2296   1.498       .  S
C1926      C2324   1.492   1_554  S
C1927      C2282   1.495       .  S
C1927      C2310   1.498   1_554  S
N1928      N1929   1.320       .  A
N1928      N1934   1.317       .  A
N1928     Mn1957   2.197       .  S
N1929      C1936   1.352       .  A
N1930      N1932   1.315       .  A
N1930      N1931   1.320       .  A
N1930     Mn1946   2.203       .  S
N1931      C1937   1.354       .  A
N1932      N1933   1.316       .  A
N1932     Mn1957   2.176       .  S
N1933      C1937   1.348       .  A
N1934      N1935   1.320       .  A
N1934     Mn1946   2.204       .  S
N1935      C1936   1.353       .  A
C1936      C2327   1.477       .  S
C1937      C2439   1.469       .  S
N1938      N1944   1.315       .  A
N1938      N1939   1.324       .  A
N1938     Mn1968   2.219       .  S
N1939      C1947   1.356       .  A
N1940      N1941   1.320       .  A
N1940      N1942   1.317       .  A
N1940     Mn1946   2.217       .  S
N1941      C1948   1.354       .  A
N1942      N1943   1.323       .  A
N1942     Mn1968   2.205       .  S
N1943      C1948   1.352       .  A
N1944      N1945   1.320       .  A
N1944     Mn1946   2.195       .  S
N1945      C1947   1.350       .  A
Mn1946    Cl1970   2.541       .  S
C1947      C2383   1.475       .  S
C1948      C2492   1.481       .  S
N1949      N1950   1.323       .  A
N1949      N1955   1.314       .  A
N1949     Mn1957   2.202       .  S
N1950      C1958   1.355       .  A
N1951      N1953   1.317       .  A
N1951      N1952   1.324       .  A
N1951     Mn1969   2.237       .  S
N1952      C1959   1.360       .  A
N1953      N1954   1.319       .  A
N1953     Mn1957   2.188       .  S
N1954      C1959   1.349       .  A
N1955      N1956   1.318       .  A
N1955     Mn1969   2.196       .  S
N1956      C1958   1.352       .  A
Mn1957    Cl1970   2.552       .  S
C1958      C2369   1.481       .  S
C1959      C2481   1.487       .  S
N1960      N1961   1.324       .  A
N1960      N1966   1.316       .  A
N1960     Mn1968   2.206       .  S
N1961      C1971   1.355       .  A
N1962      N1963   1.321       .  A
N1962      N1964   1.316       .  A
N1962     Mn1969   2.204       .  S
N1963      C1972   1.353       .  A
N1964      N1965   1.318       .  A
N1964     Mn1968   2.199       .  S
N1965      C1972   1.354       .  A
N1966      N1967   1.317       .  A
N1966     Mn1969   2.205       .  S
N1967      C1971   1.354       .  A
Mn1968    Cl1970   2.554       .  S
Mn1969    Cl1970   2.542       .  S
C1971      C2313   1.489       .  S
C1972      C2425   1.482       .  S
N1973      N1974   1.320       .  A
N1973      N1979   1.314       .  A
N1973     Mn2002   2.196       .  S
N1974      C1981   1.352       .  A
N1975      N1977   1.316       .  A
N1975      N1976   1.320       .  A
N1975     Mn1991   2.198       .  S
N1976      C1982   1.353       .  A
N1977      N1978   1.321       .  A
N1977     Mn2002   2.213       .  S
N1978      C1982   1.356       .  A
N1979      N1980   1.320       .  A
N1979     Mn1991   2.198       .  S
N1980      C1981   1.352       .  A
C1981      C2254   1.467       .  S
C1982      C2450   1.487       .  S
N1983      N1989   1.314       .  A
N1983      N1984   1.319       .  A
N1983     Mn2013   2.187       .  S
N1984      C1992   1.351       .  A
N1985      N1986   1.319       .  A
N1985      N1987   1.316       .  A
N1985     Mn1991   2.196       .  S
N1986      C1993   1.351       .  A
N1987      N1988   1.319       .  A
N1987     Mn2013   2.197       .  S
N1988      C1993   1.352       .  A
N1989      N1990   1.321       .  A
N1989     Mn1991   2.210       .  S
N1990      C1992   1.356       .  A
Mn1991    Cl2015   2.547       .  S
C1992      C2299   1.481       .  S
C1993      C2548   1.463       .  S
N1994      N1995   1.321       .  A
N1994      N2000   1.314       .  A
N1994     Mn2002   2.205       .  S
N1995      C2003   1.356       .  A
N1996      N1998   1.315       .  A
N1996      N1997   1.319       .  A
N1996     Mn2014   2.198       .  S
N1997      C2004   1.353       .  A
N1998      N1999   1.320       .  A
N1998     Mn2002   2.201       .  S
N1999      C2004   1.354       .  A
N2000      N2001   1.320       .  A
N2000     Mn2014   2.200       .  S
N2001      C2003   1.353       .  A
Mn2002    Cl2015   2.540       .  S
C2003      C2285   1.490       .  S
C2004      C2537   1.480       .  S
N2005      N2006   1.317       .  A
N2005      N2011   1.314       .  A
N2005     Mn2013   2.189       .  S
N2006      C2016   1.351       .  A
N2007      N2008   1.319       .  A
N2007      N2009   1.316       .  A
N2007     Mn2014   2.205       .  S
N2008      C2017   1.354       .  A
N2009      N2010   1.320       .  A
N2009     Mn2013   2.197       .  S
N2010      C2017   1.351       .  A
N2011      N2012   1.322       .  A
N2011     Mn2014   2.198       .  S
N2012      C2016   1.354       .  A
Mn2013    Cl2015   2.538       .  S
Mn2014    Cl2015   2.548       .  S
C2016      C2268   1.476       .  S
C2017      C2464   1.470       .  S
N2018      N2019   1.319       .  A
N2018     Mn2047   2.192       .  S
N2019      C2026   1.352       .  A
N2020      N2021   1.324       .  A
N2020     Mn2036   2.223       .  S
N2022      N2023   1.319       .  A
N2022     Mn2047   2.194       .  S
N2023      C2027   1.349       .  A
N2024      N2025   1.320       .  A
N2024     Mn2036   2.200       .  S
C2026      C2411   1.476       .  S
C2027      C2198   1.474       .  S
N2028      N2029   1.321       .  A
N2028     Mn2058   2.210       .  S
N2029      C2037   1.355       .  A
N2030      N2031   1.322       .  A
N2030     Mn2036   2.214       .  S
N2032      N2033   1.321       .  A
N2032     Mn2058   2.206       .  S
N2033      C2038   1.352       .  A
N2034      N2035   1.321       .  A
N2034     Mn2036   2.204       .  S
C2037      C2240   1.490       .  S
C2038      C2355   1.473       .  S
N2039      N2040   1.317       .  A
N2039     Mn2047   2.191       .  S
N2041      N2042   1.322       .  A
N2041     Mn2059   2.215       .  S
N2042      C2049   1.356       .  A
N2043      N2044   1.319       .  A
N2043     Mn2047   2.197       .  S
N2045      N2046   1.321       .  A
N2045     Mn2059   2.200       .  S
N2046      C2048   1.354       .  A
C2048      C2229   1.485       .  S
C2049      C2341   1.488   1_655  S
N2050      N2051   1.320       .  A
N2050     Mn2058   2.197       .  S
N2052      N2053   1.319       .  A
N2052     Mn2059   2.211       .  S
N2053      C2062   1.354       .  A
N2054      N2055   1.323       .  A
N2054     Mn2058   2.214       .  S
N2056      N2057   1.318       .  A
N2056     Mn2059   2.188       .  S
N2057      C2061   1.351       .  A
Mn2059    Cl2060   2.550       .  S
C2061      C2397   1.474       .  S
C2062      C2215   1.489       .  S
N2063      N2064   1.319       .  A
N2063     Mn2092   2.197       .  S
N2064      C2071   1.352       .  A
N2065      N2066   1.317       .  A
N2065     Mn2081   2.192       .  S
N2067      N2068   1.322       .  A
N2067     Mn2092   2.205       .  S
N2068      C2072   1.355       .  A
N2069      N2070   1.320       .  A
N2069     Mn2081   2.199       .  S
C2071      C2114   1.480       .  S
C2072      C2159   1.475       .  S
N2073      N2074   1.319       .  A
N2073     Mn2103   2.217       .  S
N2074      C2082   1.355       .  A
N2075      N2076   1.321       .  A
N2075     Mn2081   2.194       .  S
N2077      N2078   1.320       .  A
N2077     Mn2103   2.205       .  S
N2078      C2083   1.353       .  A
N2079      N2080   1.324       .  A
N2079     Mn2081   2.208       .  S
C2082      C2170   1.484       .  S
C2083      C2523   1.469       .  S
N2084      N2085   1.323       .  A
N2084     Mn2092   2.212       .  S
N2086      N2087   1.318       .  A
N2086     Mn2104   2.189       .  S
N2087      C2094   1.350       .  A
N2088      N2089   1.319       .  A
N2088     Mn2092   2.199       .  S
N2090      N2091   1.319       .  A
N2090     Mn2104   2.202       .  S
N2091      C2093   1.353       .  A
C2093      C2187   1.489       .  S
C2094      C2506   1.475       .  S
N2095      N2096   1.320       .  A
N2095     Mn2103   2.197       .  S
N2097      N2098   1.316       .  A
N2097     Mn2104   2.190       .  S
N2098      C2107   1.349   1_655  A
N2099      N2100   1.325       .  A
N2099     Mn2103   2.225       .  S
N2101      N2102   1.321       .  A
N2101     Mn2104   2.204       .  S
N2102      C2106   1.353   1_655  A
Mn2104    Cl2105   2.539       .  S
C2106      C2128   1.468       .  S
C2107      C2142   1.491       .  S
C2108      C2156   1.495       .  S
C2108      C2243   1.503       .  S
C2108      C2109   1.373       .  D
C2109      C2145   1.500       .  S
C2109      C2226   1.491       .  S
C2110      C2184   1.496       .  S
C2110      C2212   1.503       .  S
C2110      C2111   1.395       .  D
C2111      C2173   1.525   1_545  S
C2111      C2201   1.546       .  S
C2112      C2117   1.576       .  S
C2112      C2131   1.571       .  S
C2112      C2257   1.572       .  S
C2113      C2118   1.406       .  A
C2113      H2120   1.084       .  S
C2114      C2115   1.406       .  A
C2115      C2116   1.395       .  A
C2115      N2122   1.433       .  S
C2116      H2121   1.080       .  S
C2117      C2118   1.434       .  A
C2118      N2119   1.434       .  S
N2119      O2123   1.263       .  A
N2119      O2124   1.262       .  A
N2122      O2125   1.262       .  A
N2122      O2126   1.262       .  A
C2127      C2132   1.405       .  A
C2127      H2134   1.084       .  S
C2128      C2129   1.406       .  A
C2129      C2130   1.399       .  A
C2129      N2136   1.443   1_455  S
C2130      H2135   1.075       .  S
C2131      C2132   1.434       .  A
C2132      N2133   1.434       .  S
N2133      O2137   1.262       .  A
N2136      O2140   1.263       .  A
C2141      C2146   1.413       .  A
C2141      H2148   1.083       .  S
C2142      C2143   1.414   1_455  A
C2143      C2144   1.396       .  A
C2143      N2150   1.432       .  S
C2144      H2149   1.082       .  S
C2145      C2146   1.421       .  A
C2146      N2147   1.439       .  S
N2147      O2151   1.263       .  A
N2147      O2152   1.260       .  A
N2150      O2153   1.262       .  A
N2150      O2154   1.262       .  A
C2155      C2156   1.406       .  A
C2155      C2160   1.393       .  A
C2155      H2162   1.083       .  S
C2157      C2158   1.408       .  A
C2157      N2164   1.437       .  S
C2158      C2159   1.403       .  A
C2158      H2163   1.084       .  S
C2160      N2161   1.432       .  S
N2161      O2165   1.262       .  A
N2161      O2166   1.262       .  A
N2164      O2167   1.260       .  A
N2164      O2168   1.263       .  A
C2169      C2170   1.404       .  A
C2169      C2174   1.416       .  A
C2169      H2176   1.083       .  S
C2171      C2172   1.398       .  A
C2172      C2173   1.406   1_545  A
C2172      H2177   1.063       .  S
N2175      O2180   1.262       .  A
N2178      O2181   1.262       .  A
C2183      C2184   1.406   1_565  A
C2183      C2188   1.404       .  A
C2183      H2190   1.084       .  S
C2185      C2186   1.407       .  A
C2185      N2192   1.452       .  S
C2186      C2187   1.405       .  A
C2186      H2191   1.082       .  S
C2188      N2189   1.437       .  S
N2189      O2194   1.263       .  A
N2192      O2195   1.262       .  A
C2197      C2202   1.406       .  A
C2197      H2204   1.084       .  S
C2198      C2199   1.410       .  A
C2199      C2200   1.407       .  A
C2199      N2206   1.444       .  S
C2200      H2205   1.060       .  S
C2201      C2202   1.431       .  A
C2202      N2203   1.437       .  S
N2203      O2207   1.263       .  A
N2206      O2210   1.263       .  A
C2211      C2216   1.411       .  A
C2211      H2218   1.083       .  S
C2212      C2213   1.414       .  A
C2213      C2214   1.398       .  A
C2213      N2220   1.426       .  S
C2214      H2219   1.084       .  S
C2215      C2216   1.418       .  A
C2216      N2217   1.438       .  S
N2217      O2221   1.262       .  A
N2220      O2224   1.263       .  A
C2225      C2230   1.403       .  A
C2225      H2232   1.082       .  S
C2226      C2227   1.412       .  A
C2227      C2228   1.399       .  A
C2227      N2234   1.434       .  S
C2228      H2233   1.083       .  S
C2229      C2230   1.415       .  A
C2230      N2231   1.433       .  S
N2231      O2235   1.262       .  A
N2231      O2236   1.263       .  A
N2234      O2237   1.260       .  A
N2234      O2238   1.263       .  A
C2239      C2240   1.403       .  A
C2239      C2244   1.401       .  A
C2239      H2246   1.084       .  S
C2241      C2242   1.405       .  A
C2241      N2248   1.434       .  S
C2242      C2243   1.403       .  A
C2242      H2247   1.078       .  S
C2244      N2245   1.427       .  S
N2245      O2249   1.262       .  A
N2245      O2250   1.262       .  A
N2248      O2251   1.262       .  A
N2248      O2252   1.263       .  A
C2253      C2254   1.397       .  A
C2253      C2258   1.408       .  A
C2253      H2260   1.084       .  S
C2254      C2255   1.403       .  A
C2255      C2256   1.395       .  A
C2255      N2262   1.442       .  S
C2256      C2257   1.421       .  A
C2256      H2261   1.075       .  S
C2257      C2258   1.435       .  A
C2258      N2259   1.436       .  S
N2259      O2263   1.262       .  A
N2259      O2264   1.261       .  A
N2262      O2265   1.262       .  A
N2262      O2266   1.263       .  A
C2267      C2268   1.399       .  A
C2267      C2272   1.407       .  A
C2267      H2274   1.084       .  S
C2268      C2269   1.407       .  A
C2269      C2270   1.393       .  A
C2269      N2276   1.436       .  S
C2270      C2271   1.417       .  A
C2270      H2275   1.079       .  S
C2271      C2272   1.433       .  A
C2272      N2273   1.434       .  S
N2273      O2277   1.262       .  A
N2273      O2278   1.263       .  A
N2276      O2279   1.262       .  A
N2276      O2280   1.263       .  A
C2281      C2282   1.401       .  A
C2281      C2286   1.398       .  A
C2281      H2288   1.080       .  S
C2282      C2283   1.424       .  A
C2283      C2284   1.412       .  A
C2283      N2290   1.448       .  S
C2284      C2285   1.406       .  A
C2284      H2289   1.082       .  S
C2285      C2286   1.413       .  A
C2286      N2287   1.432       .  S
N2287      O2291   1.262       .  A
N2287      O2292   1.262       .  A
N2290      O2293   1.260       .  A
N2290      O2294   1.263       .  A
C2295      C2296   1.403       .  A
C2295      C2300   1.405       .  A
C2295      H2302   1.082       .  S
C2296      C2297   1.417       .  A
C2297      C2298   1.398       .  A
C2297      N2304   1.431       .  S
C2298      C2299   1.399       .  A
C2298      H2303   1.083       .  S
C2299      C2300   1.417       .  A
C2300      N2301   1.436       .  S
N2301      O2305   1.263       .  A
N2301      O2306   1.262       .  A
N2304      O2307   1.261   1_554  A
N2304      O2308   1.262       .  A
C2309      C2310   1.398       .  A
C2309      C2314   1.391       .  A
C2309      H2316   1.078       .  S
C2310      C2311   1.417       .  A
C2311      C2312   1.410       .  A
C2311      N2318   1.429       .  S
C2312      C2313   1.405       .  A
C2312      H2317   1.083       .  S
C2313      C2314   1.410       .  A
C2314      N2315   1.424       .  S
N2315      O2319   1.262       .  A
N2315      O2320   1.259       .  A
N2318      O2321   1.262       .  A
N2318      O2322   1.261       .  A
C2323      C2324   1.404       .  A
C2323      C2328   1.407       .  A
C2323      H2330   1.083       .  S
C2324      C2325   1.412       .  A
C2325      C2326   1.397       .  A
C2325      N2332   1.432       .  S
C2326      C2327   1.398       .  A
C2326      H2331   1.084       .  S
C2327      C2328   1.418       .  A
C2328      N2329   1.438       .  S
N2329      O2333   1.263       .  A
N2329      O2334   1.263       .  A
N2332      O2335   1.260   1_556  A
N2332      O2336   1.261       .  A
C2337      C2338   1.410   1_655  A
C2337      C2342   1.401       .  A
C2337      H2344   1.076       .  S
C2339      C2340   1.400       .  A
C2339      N2346   1.431       .  S
C2340      H2345   1.084       .  S
C2341      C2342   1.409   1_455  A
C2342      N2343   1.426       .  S
N2343      O2347   1.262       .  A
N2343      O2348   1.262       .  A
N2346      O2349   1.262       .  A
N2346      O2350   1.262       .  A
C2351      C2356   1.400       .  A
C2351      H2358   1.076       .  S
C2352      C2353   1.430       .  A
C2353      C2354   1.407       .  A
C2353      N2360   1.431       .  S
C2354      C2355   1.399       .  A
C2354      H2359   1.084       .  S
C2356      N2357   1.443       .  S
N2357      O2361   1.263       .  A
N2357      O2362   1.262       .  A
N2360      O2363   1.262   1_655  A
N2360      O2364   1.262       .  A
C2365      C2366   1.416       .  A
C2365      C2370   1.410       .  A
C2365      H2372   1.078       .  S
C2366      C2367   1.430       .  A
C2367      C2368   1.393       .  A
C2367      N2374   1.433       .  S
C2368      C2369   1.396       .  A
C2368      H2373   1.084       .  S
C2369      C2370   1.413       .  A
C2370      N2371   1.439       .  S
N2371      O2375   1.263       .  A
N2371      O2376   1.263       .  A
N2374      O2377   1.262       .  A
N2374      O2378   1.262       .  A
C2379      C2380   1.422       .  A
C2379      C2384   1.401       .  A
C2379      H2386   1.078       .  S
C2380      C2381   1.431       .  A
C2381      C2382   1.409       .  A
C2381      N2388   1.433       .  S
C2382      C2383   1.400       .  A
C2382      H2387   1.084       .  S
C2383      C2384   1.407       .  A
C2384      N2385   1.442       .  S
N2385      O2389   1.262       .  A
N2385      O2390   1.263       .  A
N2388      O2391   1.262       .  A
N2388      O2392   1.262       .  A
C2393      C2394   1.412       .  A
C2393      C2398   1.396       .  A
C2393      H2400   1.075       .  S
C2395      C2396   1.399       .  A
C2395      N2402   1.431       .  S
C2396      H2401   1.084       .  S
C2397      C2398   1.406       .  A
C2398      N2399   1.433       .  S
N2399      O2403   1.263       .  A
N2399      O2404   1.263       .  A
N2402      O2405   1.262       .  A
N2402      O2406   1.261       .  A
C2407      C2408   1.421       .  A
C2407      C2412   1.397       .  A
C2407      H2414   1.083       .  S
C2409      C2410   1.403       .  A
C2409      N2416   1.430       .  S
C2410      H2415   1.084       .  S
C2411      C2412   1.407       .  A
C2412      N2413   1.437       .  S
N2413      O2417   1.263       .  A
N2413      O2418   1.263       .  A
N2416      O2419   1.263       .  A
N2416      O2420   1.261       .  A
C2421      C2422   1.424       .  A
C2421      C2426   1.403       .  A
C2421      H2428   1.078       .  S
C2422      C2423   1.433       .  A
C2423      C2424   1.397       .  A
C2423      N2430   1.428       .  S
C2424      C2425   1.395       .  A
C2424      H2429   1.084       .  S
C2425      C2426   1.406       .  A
C2426      N2427   1.432       .  S
N2427      O2431   1.262       .  A
N2427      O2432   1.262       .  A
N2430      O2433   1.263       .  A
N2430      O2434   1.262       .  A
C2435      C2436   1.417       .  A
C2435      C2440   1.392       .  A
C2435      H2442   1.084       .  S
C2436      C2437   1.444       .  A
C2437      C2438   1.402       .  A
C2437      N2444   1.437       .  S
C2438      C2439   1.393       .  A
C2438      H2443   1.084       .  S
C2439      C2440   1.403       .  A
C2440      N2441   1.431       .  S
N2441      O2445   1.262       .  A
N2441      O2446   1.262       .  A
N2444      O2447   1.260       .  A
N2444      O2448   1.263       .  A
C2449      C2450   1.401       .  A
C2449      C2454   1.408       .  A
C2449      H2456   1.082       .  S
C2450      C2451   1.413       .  A
C2451      C2452   1.403       .  A
C2451      N2458   1.437       .  S
C2452      C2453   1.406       .  A
C2452      H2457   1.080       .  S
C2453      C2454   1.432       .  A
C2454      N2455   1.450       .  S
N2455      O2459   1.263       .  A
N2455      O2460   1.259       .  A
N2458      O2461   1.263       .  A
N2458      O2462   1.263       .  A
C2463      C2464   1.389       .  A
C2463      C2468   1.396       .  A
C2463      H2470   1.085       .  S
C2464      C2465   1.410       .  A
C2465      C2466   1.410       .  A
C2465      N2472   1.441       .  S
C2466      C2467   1.415       .  A
C2466      H2471   1.084       .  S
C2467      C2468   1.429       .  A
C2468      N2469   1.424       .  S
N2469      O2473   1.263   1_655  A
N2469      O2474   1.263   1_655  A
N2472      O2475   1.261       .  A
N2472      O2476   1.262       .  A
C2477      C2478   1.403       .  A
C2477      C2482   1.395       .  A
C2477      H2484   1.075       .  S
C2478      C2479   1.434       .  A
C2479      C2480   1.414       .  A
C2479      N2486   1.451       .  S
C2480      C2481   1.403       .  A
C2480      H2485   1.083       .  S
C2481      C2482   1.401       .  A
C2482      N2483   1.432       .  S
N2483      O2487   1.263       .  A
N2483      O2488   1.264       .  A
N2486      O2489   1.262       .  A
N2486      O2490   1.263       .  A
C2491      C2492   1.400       .  A
C2491      C2496   1.413       .  A
C2491      H2498   1.084       .  S
C2492      C2493   1.405       .  A
C2493      C2494   1.398       .  A
C2493      N2500   1.437       .  S
C2494      C2495   1.410       .  A
C2494      H2499   1.062       .  S
C2495      C2496   1.433       .  A
C2496      N2497   1.438   1_556  S
N2497      O2501   1.263       .  A
N2497      O2502   1.260       .  A
N2500      O2503   1.261       .  A
N2500      O2504   1.263       .  A
C2505      C2510   1.402       .  A
C2505      H2512   1.084       .  S
C2506      C2507   1.407       .  A
C2507      C2508   1.396       .  A
C2507      N2514   1.432       .  S
C2508      C2509   1.418       .  A
C2508      H2513   1.082       .  S
C2510      N2511   1.434       .  S
N2511      O2515   1.262       .  A
N2511      O2516   1.263       .  A
N2514      O2517   1.262       .  A
N2514      O2518   1.262       .  A
C2519      C2524   1.394       .  A
C2519      H2526   1.074       .  S
C2520      C2521   1.435       .  A
C2521      C2522   1.408       .  A
C2521      N2528   1.434       .  S
C2522      C2523   1.398       .  A
C2522      H2527   1.084       .  S
C2524      N2525   1.437       .  S
N2525      O2529   1.262       .  A
N2528      O2532   1.261       .  A
C2533      C2534   1.420       .  A
C2533      C2538   1.392       .  A
C2533      H2540   1.079       .  S
C2534      C2535   1.434       .  A
C2535      C2536   1.407       .  A
C2535      N2542   1.433       .  S
C2536      C2537   1.400       .  A
C2536      H2541   1.084       .  S
C2537      C2538   1.403       .  A
C2538      N2539   1.429       .  S
N2539      O2543   1.262       .  A
N2539      O2544   1.262       .  A
N2542      O2545   1.262       .  A
N2542      O2546   1.263       .  A
C2547      C2548   1.395       .  A
C2547      C2552   1.403       .  A
C2547      H2554   1.084       .  S
C2548      C2549   1.405       .  A
C2549      C2550   1.397       .  A
C2549      N2556   1.443       .  S
C2550      C2551   1.420       .  A
C2550      H2555   1.075       .  S
C2551      C2552   1.435       .  A
C2552      N2553   1.436       .  S
N2553      O2557   1.262       .  A
N2553      O2558   1.261       .  A
N2556      O2559   1.262       .  A
N2556      O2560   1.263       .  A
