geometry optimzed in LAMMPS
_audit_creation_date              2020-12-01 
_audit_creation_method            'lammps2cif' 
_symmetry_space_group_name_H-M    'P1' 
_symmetry_Int_Tables_number       1 
_symmetry_cell_setting            triclinic 
loop_ 
_symmetry_equiv_pos_as_xyz 
  x,y,z 
_cell_length_a                    32.41251008 
_cell_length_b                    32.12634956440757 
_cell_length_c                    30.45697108943208 
_cell_angle_alpha                 89.68273752763245 
_cell_angle_beta                  89.80197693027587 
_cell_angle_gamma                 120.76072450239346 
loop_ 
_atom_site_label 
_atom_site_type_symbol 
_atom_site_fract_x 
_atom_site_fract_y 
_atom_site_fract_z 
_atom_site_charge 
N1          N  0.18897710  0.27378853  0.73436255    -0.03100
C2          C  0.20146844  0.32016501  0.72543401    -0.00500
C3          C  0.20132069  0.34340792  0.76335664    -0.23400
C4          C  0.18817960  0.31030382  0.79691001    -0.23600
C5          C  0.18070196  0.26774012  0.77842995    -0.00600
H6          H  0.21128484  0.38096331  0.76642382     0.13100
H7          H  0.18441196  0.31667831  0.83114464     0.13200
N8          N  0.25388003  0.81311187  0.74271389    -0.03100
C9          C  0.27124252  0.78296386  0.73721959    -0.00500
C10         C  0.27912088  0.76824312  0.77740375    -0.23400
C11         C  0.26555071  0.78931904  0.80884605    -0.23600
C12         C  0.24954183  0.81617397  0.78688139    -0.00600
H13         H  0.29262784  0.74407699  0.78314628     0.13100
H14         H  0.26518460  0.78362588  0.84393309     0.13200
C15         C  0.35859276  0.63356544  0.61461593     0.80600
N16         N  0.33839648  0.58470948  0.61166469    -0.77700
C17         C  0.36582579  0.56380637  0.61361491     0.83000
N18         N  0.41417984  0.59262485  0.61866418    -0.77700
C19         C  0.43495026  0.64150439  0.62198976     0.83100
N20         N  0.40690866  0.66151778  0.61910139    -0.79400
N21         N  0.71508807  0.74496144  0.76205063    -0.03100
C22         C  0.66697964  0.72459243  0.75658939    -0.00500
C23         C  0.64267208  0.70497963  0.79550074    -0.23400
C24         C  0.67661171  0.71340149  0.82628705    -0.23600
C25         C  0.72088501  0.73806459  0.80530516    -0.00600
H26         H  0.60421141  0.68615707  0.80076178     0.13100
H27         H  0.66965873  0.70372491  0.86073327     0.13200
Zn28       Zn  0.99173437  0.90588123  0.04147036     1.49700
Zn29       Zn  0.09716796  0.92086664  0.04727697     1.49400
Zn30       Zn  0.06438177  0.95282783  0.96138652     1.49100
Zn31       Zn  0.08452982  0.01422141  0.04993698     1.49500
O32         O  0.05947266  0.94867190  0.02545054    -1.83800
O33         O  0.98229273  0.84833838  0.07745696    -0.74400
O34         O  0.13122019  0.90897422  0.99770639    -0.74200
O35         O  0.00062569  0.91668332  0.93224194    -0.73800
O36         O  0.05473758  0.85670239  0.07901369    -0.74400
O37         O  0.94918096  0.88022348  0.98731042    -0.74000
O38         O  0.10532221  0.92772896  0.93766355    -0.74600
O39         O  0.10846580  0.06506075  0.00102569    -0.74000
O40         O  0.14908933  0.96735394  0.08828608    -0.74800
O41         O  0.09324949  0.02084208  0.94090791    -0.74200
O42         O  0.14155689  0.03228889  0.09012673    -0.74600
O43         O  0.03174245  0.01746290  0.08416266    -0.74500
O44         O  0.96900008  0.94269700  0.07806453    -0.74300
C45         C  0.01016312  0.83319991  0.08899060     0.77500
C46         C  0.13045795  0.91266400  0.95611123     0.78000
C47         C  0.95815947  0.88891418  0.94637157     0.76900
C48         C  0.10901895  0.06152479  0.95935705     0.77300
C49         C  0.16314563  0.01008384  0.10167597     0.78400
C50         C  0.98784131  0.98589541  0.09229117     0.77500
Zn51       Zn  0.01707790  0.86417861  0.53831309     1.49700
Zn52       Zn  0.04158394  0.93021524  0.45266354     1.49400
Zn53       Zn  0.99875346  0.95230633  0.53869980     1.49100
Zn54       Zn  0.10830010  0.97338796  0.53805242     1.49500
O55         O  0.04168888  0.93037709  0.51721012    -1.83800
O56         O  0.99694451  0.81686824  0.48805838    -0.74400
O57         O  0.00052135  0.95528069  0.42812109    -0.74200
O58         O  0.94669334  0.90272718  0.58045528    -0.73800
O59         O  0.01755815  0.86364603  0.42855951    -0.74400
O60         O  0.96071116  0.84196769  0.58031974    -0.74000
O61         O  0.96583935  0.96433777  0.48752902    -0.74600
O62         O  0.11231704  0.02829335  0.57455012    -0.74000
O63         O  0.10764472  0.97136339  0.42794486    -0.74800
O64         O  0.03825749  0.01588440  0.57112852    -0.74200
O65         O  0.15425646  0.00498912  0.48597479    -0.74600
O66         O  0.13190834  0.93514133  0.57385607    -0.74500
O67         O  0.06912754  0.86024399  0.57014358    -0.74300
C68         C  0.00078981  0.82217114  0.44645880     0.77500
C69         C  0.97137761  0.96570555  0.44592935     0.78000
C70         C  0.93657624  0.86074768  0.59376804     0.76900
C71         C  0.08192827  0.04118488  0.58337228     0.77300
C72         C  0.14852627  0.99950172  0.44454472     0.78400
C73         C  0.11192346  0.88984118  0.58228376     0.77500
N74         N  0.38387679  0.17161461  0.25858896    -0.03100
C75         C  0.43113910  0.20140469  0.24884228    -0.00500
C76         C  0.45534455  0.22885707  0.28490118    -0.23400
C77         C  0.42211587  0.21586005  0.31799826    -0.23600
C78         C  0.37851179  0.18075084  0.30116025    -0.00600
H79         H  0.49358213  0.25398329  0.28745033     0.13100
H80         H  0.42947492  0.22922734  0.35128524     0.13200
N81         N  0.86185923  0.09147252  0.24148435    -0.03100
C82         C  0.83142469  0.10878152  0.23768771    -0.00500
C83         C  0.81004523  0.10610586  0.27774959    -0.23400
C84         C  0.82730821  0.08636567  0.30710847    -0.23600
C85         C  0.85878584  0.07723760  0.28423898    -0.00600
H86         H  0.78497395  0.11799269  0.28498020     0.13100
H87         H  0.81821969  0.08003123  0.34167368     0.13200
C88         C  0.72441635  0.24944040  0.12256557     0.80600
N89         N  0.75968136  0.29685325  0.11914136    -0.77700
C90         C  0.74893658  0.33255012  0.11682646     0.83000
N91         N  0.70209951  0.32010848  0.11688536    -0.77700
C92         C  0.66612866  0.27314700  0.12091143     0.83100
N93         N  0.67763960  0.23794528  0.12379459    -0.79400
N94         N  0.95880158  0.60691568  0.23528774    -0.03100
C95         C  0.95155054  0.56154538  0.23103701    -0.00500
C96         C  0.95648619  0.54434923  0.27117926    -0.23400
C97         C  0.96666493  0.57984559  0.30122499    -0.23600
C98         C  0.96789663  0.61795329  0.27864337    -0.00600
H99         H  0.95038484  0.50858582  0.27836949     0.13100
H100        H  0.97177561  0.57767871  0.33607868     0.13200
C101        C  0.92925248  0.52869186  0.19338513    -0.04900
C102        C  0.94428088  0.49588334  0.18311106    -0.04800
C103        C  0.91429671  0.45353680  0.16006135    -0.23000
C104        C  0.86828406  0.44280966  0.14771948     0.19200
C105        C  0.85439183  0.47745305  0.15469900     0.16400
C106        C  0.88546060  0.52077263  0.17673474    -0.18000
C107        C  0.80808474  0.46630774  0.14298677    -0.19900
C108        C  0.77467777  0.42003749  0.12793637    -0.12400
C109        C  0.78695818  0.38400745  0.12397274     0.04300
C110        C  0.83476391  0.39663736  0.13183888    -0.24600
H111        H  0.97779630  0.50126714  0.19592348     0.09300
H112        H  0.92575307  0.42763287  0.15471858     0.12900
H113        H  0.87324456  0.54545957  0.18524010     0.12900
H114        H  0.79686242  0.49248654  0.14769159     0.12600
H115        H  0.73846027  0.41185792  0.12147657     0.13200
H116        H  0.84513115  0.36962624  0.12856276     0.15100
C117        C  0.73727498  0.21195941  0.13262502    -0.04900
C118        C  0.70135496  0.16428559  0.14359637    -0.04800
C119        C  0.71343741  0.13103321  0.15968355    -0.23000
C120        C  0.76170038  0.14483693  0.16548731     0.19200
C121        C  0.79821507  0.19149580  0.15195093     0.16400
C122        C  0.78580833  0.22453188  0.13510362    -0.18000
C123        C  0.84647757  0.20556857  0.15871699    -0.19900
C124        C  0.85821398  0.17560694  0.18250085    -0.12400
C125        C  0.82202097  0.13051123  0.19872866     0.04300
C126        C  0.77392033  0.11435039  0.18798717    -0.24600
H127        H  0.66374561  0.15314809  0.14156311     0.09300
H128        H  0.68495208  0.09525317  0.16962902     0.12900
H129        H  0.81408399  0.26089312  0.12640503     0.12900
H130        H  0.87499687  0.24126915  0.14863741     0.12600
H131        H  0.89515667  0.18993030  0.19186050     0.13200
H132        H  0.74566666  0.08004351  0.20124749     0.15100
C133        C  0.61641888  0.26231630  0.13067727    -0.04900
C134        C  0.60654778  0.30023330  0.13030026    -0.04800
C135        C  0.56333224  0.29333223  0.14708326    -0.23000
C136        C  0.52889488  0.24833026  0.16465205     0.19200
C137        C  0.53635351  0.20873776  0.16200701     0.16400
C138        C  0.57997021  0.21585295  0.14471868    -0.18000
C139        C  0.50158589  0.16371998  0.17977955    -0.19900
C140        C  0.46245955  0.15936385  0.20363259    -0.12400
C141        C  0.45733516  0.19977076  0.20970935     0.04300
C142        C  0.48924576  0.24345257  0.18812265    -0.24600
H143        H  0.63323036  0.33616305  0.11893230     0.09300
H144        H  0.55791685  0.32391220  0.14832409     0.12900
H145        H  0.58659233  0.18603269  0.14485311     0.12900
H146        H  0.50641835  0.13281126  0.17792461     0.12600
H147        H  0.43899724  0.12575784  0.22093345     0.13200
H148        H  0.48591030  0.27496913  0.19340388     0.15100
C149        C  0.98664845  0.77950503  0.41842206    -0.04900
C150        C  0.95608065  0.73258478  0.43509815    -0.04800
C151        C  0.94433942  0.69207236  0.40961844    -0.23000
C152        C  0.96376591  0.69771558  0.36730801     0.19200
C153        C  0.99462029  0.74461610  0.35005404     0.16400
C154        C  0.00530497  0.78528065  0.37547794    -0.18000
C155        C  0.01536987  0.74987257  0.30828420    -0.19900
C156        C  0.00647526  0.70899733  0.28434313    -0.12400
C157        C  0.97537052  0.66221964  0.30111922     0.04300
C158        C  0.95381999  0.65709009  0.34252084    -0.24600
H159        H  0.94125654  0.72718313  0.46797599     0.09300
H160        H  0.92078458  0.65628290  0.42334577     0.12900
H161        H  0.02940863  0.82129512  0.36243047     0.12900
H162        H  0.03961588  0.78556828  0.29472988     0.12600
H163        H  0.02507245  0.71413779  0.25342269     0.13200
H164        H  0.92995539  0.62120057  0.35596528     0.15100
C165        C  0.18971797  0.02637306  0.41446477    -0.04900
C166        C  0.19560708  0.00272163  0.37844495    -0.04800
C167        C  0.23320487  0.02823830  0.34844743    -0.23000
C168        C  0.26470003  0.07817239  0.35329925     0.19200
C169        C  0.25833820  0.10242051  0.38897742     0.16400
C170        C  0.22141883  0.07620984  0.41978892    -0.18000
C171        C  0.28898886  0.15249781  0.39319036    -0.19900
C172        C  0.32637325  0.17811493  0.36309548    -0.12400
C173        C  0.33416714  0.15422053  0.32834248     0.04300
C174        C  0.30277940  0.10412462  0.32346067    -0.24600
H175        H  0.17119064  0.96430737  0.37372209     0.09300
H176        H  0.23735081  0.00903939  0.32125042     0.12900
H177        H  0.21643247  0.09472342  0.44712375     0.12900
H178        H  0.28439599  0.17179480  0.42003467     0.12600
H179        H  0.34994883  0.21669482  0.36756790     0.13200
H180        H  0.30909641  0.08485609  0.29780930     0.15100
C181        C  0.94320992  0.97952247  0.41768737    -0.04900
C182        C  0.89583186  0.96526907  0.42934869    -0.04800
C183        C  0.86894647  0.97847553  0.40324333    -0.23000
C184        C  0.88949911  0.00748003  0.36571167     0.19200
C185        C  0.93721904  0.02229692  0.35367886     0.16400
C186        C  0.96351298  0.00738298  0.37927172    -0.18000
C187        C  0.95818966  0.05304400  0.31715457    -0.19900
C188        C  0.93266103  0.07018993  0.29371889    -0.12400
C189        C  0.88507532  0.05558139  0.30535837     0.04300
C190        C  0.86356997  0.02326595  0.34099337    -0.24600
H191        H  0.87944826  0.94351177  0.45858235     0.09300
H192        H  0.83242230  0.96692085  0.41298017     0.12900
H193        H  0.00022372  0.01884175  0.37025323     0.12900
H194        H  0.99494827  0.06529607  0.30771422     0.12600
H195        H  0.95107553  0.09639575  0.26776796     0.13200
H196        H  0.82690625  0.01144758  0.35044998     0.15100
C197        C  0.96587144  0.63998533  0.19991831    -0.04900
C198        C  0.00133282  0.65043349  0.16804182    -0.04800
C199        C  0.01559100  0.68891467  0.13845976    -0.23000
C200        C  0.99437320  0.71751556  0.14011625     0.19200
C201        C  0.95642232  0.70532188  0.17022157     0.16400
C202        C  0.94223414  0.66643808  0.19985326    -0.18000
C203        C  0.93464469  0.73342347  0.17126239    -0.19900
C204        C  0.95125280  0.77405525  0.14380515    -0.12400
C205        C  0.99045081  0.78787310  0.11528379     0.04300
C206        C  0.01140430  0.75889402  0.11314342    -0.24600
H207        H  0.01986184  0.63036673  0.16773854     0.09300
H208        H  0.04433832  0.69732072  0.11531668     0.12900
H209        H  0.91466171  0.65823245  0.22428975     0.12900
H210        H  0.90536571  0.72453561  0.19390603     0.12600
H211        H  0.93442281  0.79569059  0.14595215     0.13200
H212        H  0.04123114  0.76882464  0.09083722     0.15100
C213        C  0.88566572  0.08131590  0.20677790    -0.04900
C214        C  0.92846473  0.11854828  0.18805281    -0.04800
C215        C  0.95655504  0.10767889  0.16075089    -0.23000
C216        C  0.94251417  0.05929186  0.15214112     0.19200
C217        C  0.89879731  0.02171254  0.17001595     0.16400
C218        C  0.87065108  0.03299109  0.19695551    -0.18000
C219        C  0.88464344  0.97337810  0.16182270    -0.19900
C220        C  0.91360865  0.96218408  0.13647437    -0.12400
C221        C  0.95759977  0.99901168  0.11891134     0.04300
C222        C  0.97179301  0.04773698  0.12686166    -0.24600
H223        H  0.94175134  0.15582511  0.19680200     0.09300
H224        H  0.99005512  0.13703956  0.14763038     0.12900
H225        H  0.83809625  0.00422740  0.21212081     0.12900
H226        H  0.85130276  0.94413782  0.17534919     0.12600
H227        H  0.90169767  0.92440269  0.13105583     0.13200
H228        H  0.00545197  0.07656260  0.11341962     0.15100
C229        C  0.34556917  0.14975250  0.22720440    -0.04900
C230        C  0.32097519  0.17361643  0.21575703    -0.04800
C231        C  0.28099126  0.15159055  0.18834612    -0.23000
C232        C  0.26443247  0.10484204  0.17235637     0.19200
C233        C  0.28922229  0.08062029  0.18345623     0.16400
C234        C  0.33006909  0.10349811  0.21041730    -0.18000
C235        C  0.27217489  0.03361818  0.16801933    -0.19900
C236        C  0.23108302  0.01080089  0.14193089    -0.12400
C237        C  0.20608837  0.03446305  0.13048382     0.04300
C238        C  0.22325517  0.08176935  0.14587778    -0.24600
H239        H  0.33255160  0.20921837  0.22875397     0.09300
H240        H  0.26254766  0.17077755  0.18028494     0.12900
H241        H  0.34866546  0.08481733  0.21973825     0.12900
H242        H  0.29052399  0.01437762  0.17624950     0.12600
H243        H  0.21899493  0.97449326  0.13053540     0.13200
H244        H  0.20459051  0.10064056  0.13738797     0.15100
C245        C  0.75178107  0.76980956  0.72886895    -0.04900
C246        C  0.75440501  0.80878994  0.70531277    -0.04800
C247        C  0.79095178  0.83446276  0.67426462    -0.23000
C248        C  0.82522592  0.82113177  0.66568145     0.19200
C249        C  0.82214562  0.78112886  0.68846511     0.16400
C250        C  0.78574330  0.75602281  0.72021061    -0.18000
C251        C  0.85563132  0.76704173  0.67916098    -0.19900
C252        C  0.89212168  0.79255435  0.64805797    -0.12400
C253        C  0.89646981  0.83318892  0.62582835     0.04300
C254        C  0.86253058  0.84713070  0.63484260    -0.24600
H255        H  0.72859369  0.81993132  0.71173359     0.09300
H256        H  0.79248399  0.86483646  0.65706306     0.12900
H257        H  0.78357943  0.72571951  0.73812800     0.12900
H258        H  0.85370800  0.73631390  0.69604749     0.12600
H259        H  0.91750796  0.78079583  0.64189454     0.13200
H260        H  0.86498054  0.87802206  0.61777619     0.15100
C261        C  0.91885889  0.86662841  0.91419731    -0.04900
C262        C  0.92067355  0.89210943  0.87584129    -0.04800
C263        C  0.88343376  0.87150322  0.84531940    -0.23000
C264        C  0.84431242  0.82453315  0.85209391     0.19200
C265        C  0.84323991  0.79803704  0.88981457     0.17200
C266        C  0.88002070  0.81950527  0.92095243    -0.18000
C267        C  0.80512612  0.75061982  0.89603855    -0.19900
C268        C  0.76742632  0.73030465  0.86624507    -0.12400
C269        C  0.76644778  0.75712429  0.82995435     0.04300
C270        C  0.80567856  0.80410151  0.82255031    -0.24600
H271        H  0.95054587  0.92845379  0.86991468     0.09300
H272        H  0.88517957  0.89232364  0.81652621     0.12900
H273        H  0.87882633  0.79935169  0.95009110     0.12900
H274        H  0.80398855  0.72951764  0.92439289     0.12600
H275        H  0.73789016  0.69388200  0.87254621     0.13200
H276        H  0.80514623  0.82575538  0.79544875     0.15100
C277        C  0.64095158  0.71882634  0.71543679    -0.04900
C278        C  0.63272019  0.68133820  0.68680986    -0.04800
C279        C  0.59320045  0.66165696  0.65858598    -0.23000
C280        C  0.56127498  0.67904959  0.65905580     0.19200
C281        C  0.57193606  0.71956213  0.68517031     0.16400
C282        C  0.61191318  0.73940411  0.71285432    -0.18000
C283        C  0.54039909  0.73718862  0.68590172    -0.19900
C284        C  0.49720233  0.71322945  0.66312561    -0.12400
C285        C  0.48440639  0.67088518  0.63938555     0.04300
C286        C  0.51745560  0.65485111  0.63632514    -0.24600
H287        H  0.65420140  0.66440003  0.68916969     0.09300
H288        H  0.58588438  0.63085704  0.63859904     0.12900
H289        H  0.61772153  0.76772576  0.73562445     0.12900
H290        H  0.54817284  0.76833262  0.70560137     0.12600
H291        H  0.47268624  0.72659163  0.66609977     0.13200
H292        H  0.50821493  0.62248417  0.61789894     0.15100
C293        C  0.24071228  0.83592586  0.70922874    -0.04900
C294        C  0.25986989  0.88625870  0.70974615    -0.04800
C295        C  0.24093361  0.90781200  0.68278641    -0.23000
C296        C  0.20168317  0.87913183  0.65557523     0.19200
C297        C  0.18312725  0.82855535  0.65413543     0.16400
C298        C  0.20341673  0.80746436  0.68022833    -0.18000
C299        C  0.14309561  0.79949107  0.62819365    -0.19900
C300        C  0.12074218  0.81990167  0.60481253    -0.12400
C301        C  0.13820351  0.87001608  0.60620081     0.04300
C302        C  0.17951557  0.89970703  0.63109368    -0.24600
H303        H  0.28839536  0.90853598  0.73231420     0.09300
H304        H  0.25572845  0.94657326  0.68451492     0.12900
H305        H  0.18803188  0.76853658  0.68046954     0.12900
H306        H  0.12833648  0.76071047  0.62675056     0.12600
H307        H  0.08936835  0.79612603  0.58564427     0.13200
H308        H  0.19334005  0.93832960  0.63263257     0.15100
C309        C  0.22520157  0.83852042  0.80975729    -0.04900
C310        C  0.18286542  0.83443379  0.79317528    -0.04800
C311        C  0.15718615  0.85049229  0.81762057    -0.23000
C312        C  0.17247201  0.86939929  0.85973668     0.19200
C313        C  0.21471839  0.87325278  0.87691200     0.16400
C314        C  0.24114663  0.85860427  0.85156230    -0.18000
C315        C  0.22905294  0.89029344  0.91968928    -0.19900
C316        C  0.20136878  0.90274398  0.94550747    -0.12400
C317        C  0.15950635  0.89939432  0.92865161     0.04300
C318        C  0.14553053  0.88321006  0.88546397    -0.24600
H319        H  0.16824491  0.81697655  0.76219012     0.09300
H320        H  0.12446993  0.84656525  0.80420082     0.12900
H321        H  0.27342099  0.86141894  0.86495957     0.12900
H322        H  0.26124907  0.89327466  0.93341646     0.12600
H323        H  0.21293900  0.91544805  0.97859350     0.13200
H324        H  0.11302579  0.88011349  0.87234388     0.15100
C325        C  0.28170794  0.76670653  0.69571913    -0.04900
C326        C  0.32530963  0.79700328  0.67392126    -0.04800
C327        C  0.34625106  0.77710640  0.64748659    -0.23000
C328        C  0.32406514  0.72661086  0.64320915     0.19200
C329        C  0.27798830  0.69637805  0.66170349     0.16400
C330        C  0.25681975  0.71676294  0.68730242    -0.18000
C331        C  0.25588597  0.64596047  0.65788304    -0.19900
C332        C  0.28084797  0.62544193  0.63936040    -0.12400
C333        C  0.32835440  0.65499286  0.62426329     0.04300
C334        C  0.34877409  0.70571164  0.62422269    -0.24600
H335        H  0.34533901  0.83544342  0.68075266     0.09300
H336        H  0.38144352  0.80089005  0.63326884     0.12900
H337        H  0.22351107  0.69326196  0.70477835     0.12900
H338        H  0.22037627  0.62229824  0.67155755     0.12600
H339        H  0.26395903  0.58636485  0.63951333     0.13200
H340        H  0.38514118  0.72899500  0.61219754     0.15100
C341        C  0.18104189  0.23711831  0.70306284    -0.04900
C342        C  0.21158765  0.21822784  0.70144697    -0.04800
C343        C  0.19979786  0.17760786  0.67573457    -0.23000
C344        C  0.15641474  0.15435926  0.65244448     0.19200
C345        C  0.12576982  0.17362797  0.65375889     0.16400
C346        C  0.13893516  0.21561047  0.67808427    -0.18000
C347        C  0.08158304  0.14955061  0.63214357    -0.19900
C348        C  0.06750551  0.10651834  0.60973982    -0.12400
C349        C  0.09758554  0.08689937  0.60777828     0.04300
C350        C  0.14245244  0.11150505  0.62894434    -0.24600
H351        H  0.24389912  0.23431134  0.72098731     0.09300
H352        H  0.22373192  0.16338061  0.67530888     0.12900
H353        H  0.11499936  0.22979306  0.68014596     0.12900
H354        H  0.05752176  0.16362361  0.63309996     0.12600
H355        H  0.03295801  0.08868667  0.59365623     0.13200
H356        H  0.16600303  0.09681549  0.62796919     0.15100
C357        C  0.12803957  0.10501677  0.93106047    -0.04900
C358        C  0.16242951  0.15086757  0.94664943    -0.04800
C359        C  0.18147601  0.19138702  0.91882210    -0.23000
C360        C  0.16565288  0.18672335  0.87529338     0.19200
C361        C  0.13057653  0.14084801  0.85957558     0.16400
C362        C  0.11239159  0.10030393  0.88736938    -0.18000
C363        C  0.11359384  0.13640127  0.81657274    -0.19900
C364        C  0.13049819  0.17727967  0.78957518    -0.12400
C365        C  0.16567166  0.22309857  0.80465547     0.04300
C366        C  0.18345519  0.22731435  0.84753651    -0.24600
H367        H  0.17515791  0.15520922  0.98009701     0.09300
H368        H  0.20824635  0.22639192  0.93142666     0.12900
H369        H  0.08548934  0.06510999  0.87514025     0.12900
H370        H  0.08620183  0.10152151  0.80424807     0.12600
H371        H  0.11437929  0.17296211  0.75773765     0.13200
H372        H  0.21044520  0.26249188  0.85969144     0.15100
C373        C  0.34227658  0.51055502  0.62091560    -0.04900
C374        C  0.36881997  0.49033297  0.63730590    -0.04800
C375        C  0.34553586  0.44281484  0.65354533    -0.23000
C376        C  0.29527050  0.41474665  0.65400081     0.19200
C377        C  0.26839849  0.43305244  0.63401810     0.16400
C378        C  0.29211933  0.48052954  0.61696269    -0.18000
C379        C  0.21805709  0.40540472  0.63536697    -0.19900
C380        C  0.19481302  0.36309982  0.66088991    -0.12400
C381        C  0.22149687  0.34712502  0.68410604     0.04300
C382        C  0.27146641  0.37113945  0.67807450    -0.24600
H383        H  0.40748674  0.51212281  0.64017507     0.09300
H384        H  0.36673496  0.42919168  0.66833625     0.12900
H385        H  0.27112801  0.49522437  0.60379514     0.12900
H386        H  0.19683954  0.41868678  0.62001400     0.12600
H387        H  0.15635425  0.34547219  0.66593184     0.13200
H388        H  0.29217481  0.35946814  0.69687779     0.15100
loop_ 
_geom_bond_atom_site_label_1 
_geom_bond_atom_site_label_2 
_geom_bond_distance 
_geom_bond_site_symmetry_2 
_ccdc_geom_bond_type 
N1            C5   1.361       .  A
N1            C2   1.355       .  A
N1          C341   1.438       .  S
C2            C3   1.380       .  A
C2          C381   1.471       .  S
C3            C4   1.371       .  A
C3            H6   1.082       .  S
C4            C5   1.384       .  A
C4            H7   1.082       .  S
C5          C365   1.484       .  S
N8           C12   1.361       .  A
N8            C9   1.357       .  A
N8          C293   1.440       .  S
C9           C10   1.381       .  A
C9          C325   1.473       .  S
C10          C11   1.370       .  A
C10          H13   1.082       .  S
C11          C12   1.384       .  A
C11          H14   1.082       .  S
C12         C309   1.485       .  S
C15          N16   1.361       .  A
C15          N20   1.357       .  A
C15         C333   1.487       .  S
N16          C17   1.362       .  A
C17          N18   1.362       .  A
C17         C373   1.489       .  S
N18          C19   1.360       .  A
C19          N20   1.358       .  A
C19         C285   1.485       .  S
N21          C25   1.364       .  A
N21          C22   1.359       .  A
N21         C245   1.444       .  S
C22          C23   1.378       .  A
C22         C277   1.472       .  S
C23          C24   1.367       .  A
C23          H26   1.083       .  S
C24          C25   1.386       .  A
C24          H27   1.082       .  S
C25         C269   1.486       .  S
Zn28         O32   1.961   1_655  S
Zn28         O33   2.027       .  S
Zn28         O37   2.042   1_554  S
Zn28         O44   2.021       .  S
Zn29         O32   1.962       .  S
Zn29         O34   2.017   1_554  S
Zn29         O36   2.036       .  S
Zn29         O40   2.022       .  S
Zn30         O32   1.955   1_556  S
Zn30         O35   1.994       .  S
Zn30         O38   2.007       .  S
Zn30         O41   1.982   1_565  S
Zn31         O32   1.981   1_545  S
Zn31         O39   2.039       .  S
Zn31         O42   2.044       .  S
Zn31         O43   2.048       .  S
O33          C45   1.275   1_655  A
O34          C46   1.273       .  A
O35          C47   1.269   1_455  A
O36          C45   1.276       .  A
O37          C47   1.276       .  A
O38          C46   1.272       .  A
O39          C48   1.276   1_554  A
O40          C49   1.275   1_565  A
O41          C48   1.270       .  A
O42          C49   1.277       .  A
O43          C50   1.278   1_445  A
O44          C50   1.276       .  A
C45         C205   1.484   1_455  S
C46         C317   1.475       .  S
C47         C261   1.476       .  S
C48         C357   1.475       .  S
C49         C237   1.490       .  S
C50         C221   1.489       .  S
Zn51         O55   1.954       .  S
Zn51         O56   2.024   1_455  S
Zn51         O60   2.031   1_455  S
Zn51         O67   2.008       .  S
Zn52         O55   1.966       .  S
Zn52         O57   2.019       .  S
Zn52         O59   2.009       .  S
Zn52         O63   1.995       .  S
Zn53         O55   1.965   1_655  S
Zn53         O58   2.053       .  S
Zn53         O61   2.035       .  S
Zn53         O64   2.035   1_665  S
Zn54         O55   1.985       .  S
Zn54         O62   2.038   1_565  S
Zn54         O65   2.046   1_565  S
Zn54         O66   2.058       .  S
O56          C68   1.275   1_655  A
O57          C69   1.273   1_455  A
O58          C70   1.277       .  A
O59          C68   1.272       .  A
O60          C70   1.276       .  A
O61          C69   1.276       .  A
O62          C71   1.277       .  A
O63          C72   1.270       .  A
O64          C71   1.278       .  A
O65          C72   1.276   1_545  A
O66          C73   1.278       .  A
O67          C73   1.274       .  A
C68         C149   1.480   1_455  S
C69         C181   1.479       .  S
C70         C253   1.494       .  S
C71         C349   1.490       .  S
C72         C165   1.473   1_565  S
C73         C301   1.489       .  S
N74          C78   1.361       .  A
N74          C75   1.358       .  A
N74         C229   1.440       .  S
C75          C76   1.381       .  A
C75         C141   1.478       .  S
C76          C77   1.371       .  A
C76          H79   1.082       .  S
C77          C78   1.383       .  A
C77          H80   1.082       .  S
C78         C173   1.486       .  S
N81          C85   1.364       .  A
N81          C82   1.363       .  A
N81         C213   1.440       .  S
C82          C83   1.381       .  A
C82         C125   1.483       .  S
C83          C84   1.369       .  A
C83          H86   1.083       .  S
C84          C85   1.384       .  A
C84          H87   1.082       .  S
C85         C189   1.493       .  S
C88          N89   1.362       .  A
C88          N93   1.365       .  A
C88         C117   1.493       .  S
N89          C90   1.360       .  A
C90          N91   1.358       .  A
C90         C109   1.490       .  S
N91          C92   1.359       .  A
C92          N93   1.363       .  A
C92         C133   1.493       .  S
N94          C98   1.363       .  A
N94          C95   1.360       .  A
N94         C197   1.442       .  S
C95          C96   1.382       .  A
C95         C101   1.480       .  S
C96          C97   1.369       .  A
C96          H99   1.082       .  S
C97          C98   1.383       .  A
C97         H100   1.082       .  S
C98         C157   1.486       .  S
C101        C102   1.405       .  A
C101        C106   1.405       .  A
C102        C103   1.397       .  A
C102        H111   1.083       .  S
C103        C104   1.401       .  A
C103        H112   1.084       .  S
C104        C110   1.406       .  A
C104        C105   1.415       .  A
C105        C107   1.401       .  A
C105        C106   1.408       .  A
C106        H113   1.084       .  S
C107        C108   1.399       .  A
C107        H114   1.084       .  S
C108        C109   1.409       .  A
C108        H115   1.083       .  S
C109        C110   1.408       .  A
C110        H116   1.084       .  S
C117        C118   1.407       .  A
C117        C122   1.412       .  A
C118        C119   1.399       .  A
C118        H127   1.083       .  S
C119        C120   1.403       .  A
C119        H128   1.084       .  S
C120        C126   1.406       .  A
C120        C121   1.412       .  A
C121        C123   1.405       .  A
C121        C122   1.408       .  A
C122        H129   1.084       .  S
C123        C124   1.402       .  A
C123        H130   1.083       .  S
C124        C125   1.403       .  A
C124        H131   1.080       .  S
C125        C126   1.409       .  A
C126        H132   1.085       .  S
C133        C134   1.409       .  A
C133        C138   1.411       .  A
C134        C135   1.396       .  A
C134        H143   1.083       .  S
C135        C136   1.400       .  A
C135        H144   1.084       .  S
C136        C142   1.405       .  A
C136        C137   1.414       .  A
C137        C139   1.405       .  A
C137        C138   1.411       .  A
C138        H145   1.084       .  S
C139        C140   1.402       .  A
C139        H146   1.083       .  S
C140        C141   1.404       .  A
C140        H147   1.083       .  S
C141        C142   1.404       .  A
C142        H148   1.085       .  S
C149        C150   1.404       .  A
C149        C154   1.410   1_655  A
C150        C151   1.396       .  A
C150        H159   1.083       .  S
C151        C152   1.402       .  A
C151        H160   1.084       .  S
C152        C158   1.400       .  A
C152        C153   1.412       .  A
C153        C155   1.405   1_655  A
C153        C154   1.406   1_655  A
C154        H161   1.084       .  S
C155        C156   1.401       .  A
C155        H162   1.083       .  S
C156        C157   1.405   1_455  A
C156        H163   1.082       .  S
C157        C158   1.407       .  A
C158        H164   1.084       .  S
C165        C166   1.405       .  A
C165        C170   1.402       .  A
C166        C167   1.398       .  A
C166        H175   1.083   1_545  S
C167        C168   1.402       .  A
C167        H176   1.084       .  S
C168        C174   1.406       .  A
C168        C169   1.415       .  A
C169        C171   1.400       .  A
C169        C170   1.405       .  A
C170        H177   1.084       .  S
C171        C172   1.396       .  A
C171        H178   1.084       .  S
C172        C173   1.407       .  A
C172        H179   1.083       .  S
C173        C174   1.406       .  A
C174        H180   1.081       .  S
C181        C182   1.403       .  A
C181        C186   1.408   1_565  A
C182        C183   1.397       .  A
C182        H191   1.083       .  S
C183        C184   1.402   1_565  A
C183        H192   1.084       .  S
C184        C190   1.402       .  A
C184        C185   1.412       .  A
C185        C187   1.404       .  A
C185        C186   1.408       .  A
C186        H193   1.084   1_655  S
C187        C188   1.401       .  A
C187        H194   1.083       .  S
C188        C189   1.407       .  A
C188        H195   1.079       .  S
C189        C190   1.408       .  A
C190        H196   1.084       .  S
C197        C198   1.404   1_655  A
C197        C202   1.405       .  A
C198        C199   1.398       .  A
C198        H207   1.083       .  S
C199        C200   1.402   1_455  A
C199        H208   1.083       .  S
C200        C206   1.407   1_655  A
C200        C201   1.415       .  A
C201        C203   1.402       .  A
C201        C202   1.408       .  A
C202        H209   1.084       .  S
C203        C204   1.400       .  A
C203        H210   1.083       .  S
C204        C205   1.406       .  A
C204        H211   1.083       .  S
C205        C206   1.407   1_655  A
C206        H212   1.084       .  S
C213        C214   1.404       .  A
C213        C218   1.404       .  A
C214        C215   1.402       .  A
C214        H223   1.080       .  S
C215        C216   1.405       .  A
C215        H224   1.083       .  S
C216        C222   1.411       .  A
C216        C217   1.414       .  A
C217        C219   1.400   1_545  A
C217        C218   1.405       .  A
C218        H225   1.084       .  S
C219        C220   1.396       .  A
C219        H226   1.084       .  S
C220        C221   1.408       .  A
C220        H227   1.083       .  S
C221        C222   1.410   1_565  A
C222        H228   1.084   1_655  S
C229        C230   1.403       .  A
C229        C234   1.403       .  A
C230        C231   1.398       .  A
C230        H239   1.083       .  S
C231        C232   1.402       .  A
C231        H240   1.083       .  S
C232        C238   1.408       .  A
C232        C233   1.416       .  A
C233        C235   1.401       .  A
C233        C234   1.409       .  A
C234        H241   1.083       .  S
C235        C236   1.399       .  A
C235        H242   1.084       .  S
C236        C237   1.409       .  A
C236        H243   1.083   1_545  S
C237        C238   1.408       .  A
C238        H244   1.084       .  S
C245        C246   1.404       .  A
C245        C250   1.406       .  A
C246        C247   1.401       .  A
C246        H255   1.083       .  S
C247        C248   1.404       .  A
C247        H256   1.083       .  S
C248        C254   1.411       .  A
C248        C249   1.415       .  A
C249        C251   1.402       .  A
C249        C250   1.410       .  A
C250        H257   1.084       .  S
C251        C252   1.400       .  A
C251        H258   1.084       .  S
C252        C253   1.408       .  A
C252        H259   1.083       .  S
C253        C254   1.410       .  A
C254        H260   1.084       .  S
C261        C262   1.406       .  A
C261        C266   1.402       .  A
C262        C263   1.399       .  A
C262        H271   1.083       .  S
C263        C264   1.402       .  A
C263        H272   1.084       .  S
C264        C270   1.408       .  A
C264        C265   1.416       .  A
C265        C267   1.397       .  A
C265        C266   1.404       .  A
C266        H273   1.084       .  S
C267        C268   1.393       .  A
C267        H274   1.084       .  S
C268        C269   1.408       .  A
C268        H275   1.083       .  S
C269        C270   1.406       .  A
C270        H276   1.082       .  S
C277        C278   1.402       .  A
C277        C282   1.402       .  A
C278        C279   1.402       .  A
C278        H287   1.083       .  S
C279        C280   1.405       .  A
C279        H288   1.083       .  S
C280        C286   1.409       .  A
C280        C281   1.414       .  A
C281        C283   1.399       .  A
C281        C282   1.402       .  A
C282        H289   1.085       .  S
C283        C284   1.394       .  A
C283        H290   1.084       .  S
C284        C285   1.408       .  A
C284        H291   1.083       .  S
C285        C286   1.409       .  A
C286        H292   1.084       .  S
C293        C294   1.405       .  A
C293        C298   1.401       .  A
C294        C295   1.401       .  A
C294        H303   1.083       .  S
C295        C296   1.404       .  A
C295        H304   1.083       .  S
C296        C302   1.412       .  A
C296        C297   1.416       .  A
C297        C299   1.398       .  A
C297        C298   1.406       .  A
C298        H305   1.084       .  S
C299        C300   1.395       .  A
C299        H306   1.084       .  S
C300        C301   1.408       .  A
C300        H307   1.083       .  S
C301        C302   1.409       .  A
C302        H308   1.084       .  S
C309        C310   1.406       .  A
C309        C314   1.406       .  A
C310        C311   1.397       .  A
C310        H319   1.080       .  S
C311        C312   1.402       .  A
C311        H320   1.084       .  S
C312        C318   1.403       .  A
C312        C313   1.413       .  A
C313        C315   1.402       .  A
C313        C314   1.401       .  A
C314        H321   1.084       .  S
C315        C316   1.396       .  A
C315        H322   1.084       .  S
C316        C317   1.404       .  A
C316        H323   1.083       .  S
C317        C318   1.406       .  A
C318        H324   1.084       .  S
C325        C326   1.402       .  A
C325        C330   1.405       .  A
C326        C327   1.401       .  A
C326        H335   1.083       .  S
C327        C328   1.406       .  A
C327        H336   1.083       .  S
C328        C334   1.406       .  A
C328        C329   1.413       .  A
C329        C331   1.402       .  A
C329        C330   1.403       .  A
C330        H337   1.085       .  S
C331        C332   1.398       .  A
C331        H338   1.084       .  S
C332        C333   1.407       .  A
C332        H339   1.083       .  S
C333        C334   1.411       .  A
C334        H340   1.084       .  S
C341        C342   1.402       .  A
C341        C346   1.403       .  A
C342        C343   1.402       .  A
C342        H351   1.083       .  S
C343        C344   1.406       .  A
C343        H352   1.083       .  S
C344        C350   1.410       .  A
C344        C345   1.414       .  A
C345        C347   1.401       .  A
C345        C346   1.405       .  A
C346        H353   1.084       .  S
C347        C348   1.397       .  A
C347        H354   1.084       .  S
C348        C349   1.407       .  A
C348        H355   1.083       .  S
C349        C350   1.411       .  A
C350        H356   1.084       .  S
C357        C358   1.403       .  A
C357        C362   1.407       .  A
C358        C359   1.399       .  A
C358        H367   1.083       .  S
C359        C360   1.404       .  A
C359        H368   1.083       .  S
C360        C366   1.401       .  A
C360        C361   1.411       .  A
C361        C363   1.402       .  A
C361        C362   1.400       .  A
C362        H369   1.084       .  S
C363        C364   1.396       .  A
C363        H370   1.084       .  S
C364        C365   1.404       .  A
C364        H371   1.079       .  S
C365        C366   1.408       .  A
C366        H372   1.084       .  S
C373        C374   1.408       .  A
C373        C378   1.409       .  A
C374        C375   1.398       .  A
C374        H383   1.083       .  S
C375        C376   1.402       .  A
C375        H384   1.084       .  S
C376        C382   1.405       .  A
C376        C377   1.414       .  A
C377        C379   1.403       .  A
C377        C378   1.406       .  A
C378        H385   1.084       .  S
C379        C380   1.399       .  A
C379        H386   1.083       .  S
C380        C381   1.402       .  A
C380        H387   1.083       .  S
C381        C382   1.404       .  A
C382        H388   1.085       .  S
