geometry optimzed in LAMMPS
_audit_creation_date              2020-12-01 
_audit_creation_method            'lammps2cif' 
_symmetry_space_group_name_H-M    'P1' 
_symmetry_Int_Tables_number       1 
_symmetry_cell_setting            triclinic 
loop_ 
_symmetry_equiv_pos_as_xyz 
  x,y,z 
_cell_length_a                    50.99032136 
_cell_length_b                    52.1557066908725 
_cell_length_c                    36.049992747461026 
_cell_angle_alpha                 109.1121889901233 
_cell_angle_beta                  80.51488389918146 
_cell_angle_gamma                 121.93103672664553 
loop_ 
_atom_site_label 
_atom_site_type_symbol 
_atom_site_fract_x 
_atom_site_fract_y 
_atom_site_fract_z 
_atom_site_charge 
N1          N  0.86878586  0.42730729  0.02401298    -0.02200
C2          C  0.89751683  0.45187359  0.03639154     0.00400
C3          C  0.90718275  0.47385732  0.51623584    -0.22500
C4          C  0.88388092  0.46252707  0.49050510    -0.22700
C5          C  0.86070028  0.43390041  0.49570690     0.00300
H6          H  0.92994405  0.49451160  0.51753615     0.14100
H7          H  0.88472430  0.47301405  0.46861062     0.14100
N8          N  0.64220450  0.03047489  0.38876857    -0.02200
C9          C  0.64458688  0.00445423  0.38077323     0.00400
C10         C  0.65536388  0.99776875  0.34314244    -0.22500
C11         C  0.65950560  0.02012936  0.32712661    -0.22700
C12         C  0.65129533  0.03985032  0.35557404     0.00300
H13         H  0.65769730  0.97742167  0.32794654     0.14100
H14         H  0.66641604  0.02109272  0.29734563     0.14100
N15         N  0.46516076  0.27318093  0.50910755    -0.02200
C16         C  0.44055177  0.27736689  0.51378097     0.00400
C17         C  0.42892682  0.27745396  0.05131079    -0.22500
C18         C  0.44710923  0.27359119  0.07054236    -0.22700
C19         C  0.46897656  0.27089180  0.04400884     0.00300
H20         H  0.41007964  0.28131598  0.06391860     0.14100
H21         H  0.44492824  0.27323713  0.10076988     0.14100
O22         O  0.67046982  0.21385930  0.24697595    -0.80500
C23         C  0.60711431  0.24690108  0.17595553     0.98800
O24         O  0.59477666  0.22243430  0.18747947    -0.69600
O25         O  0.61865959  0.18637088  0.16005847    -0.73200
Al26       Al  0.61111605  0.20602600  0.21193329     1.49000
C27         C  0.64150599  0.18310494  0.14712808     0.94100
O28         O  0.69869604  0.25917705  0.17285885    -0.79400
O29         O  0.67545070  0.29069206  0.28101004    -0.73000
Al30       Al  0.68245648  0.23651683  0.21055390     1.90100
O31         O  0.69195050  0.29834140  0.20695787    -0.72100
O32         O  0.61744544  0.26925127  0.26520932    -0.71900
O33         O  0.63314099  0.27035463  0.18920282    -0.77600
O34         O  0.59728571  0.22002975  0.26259682    -0.75800
O35         O  0.64902347  0.24022739  0.21883026    -1.11900
O36         O  0.62060975  0.18345756  0.23522600    -0.71100
C37         C  0.64476284  0.19090846  0.25166649     0.99600
C38         C  0.70539278  0.28724428  0.17971515     0.96800
Al39       Al  0.65396531  0.27875769  0.23422759     1.55600
O40         O  0.66612008  0.19916588  0.16715286    -0.75700
C41         C  0.59859782  0.24607787  0.27799799     1.00200
C42         C  0.69971836  0.28991992  0.28171293     0.95100
O43         O  0.70656673  0.27307667  0.25250099    -0.81100
N44         N  0.12095888  0.53963672  0.98997761    -0.02200
C45         C  0.09425845  0.53974490  0.00128831     0.00400
C46         C  0.08458220  0.54586291  0.47313484    -0.22500
C47         C  0.10575983  0.54937335  0.44349536    -0.22700
C48         C  0.12776122  0.54544006  0.45451870     0.00300
H49         H  0.06329234  0.54570575  0.47293950     0.14100
H50         H  0.10469658  0.55329220  0.41623240     0.14100
N51         N  0.51980416  0.78692248  0.47471598    -0.02200
C52         C  0.54571031  0.81582907  0.47958479     0.00400
C53         C  0.56082594  0.82485428  0.01403182    -0.22500
C54         C  0.54374931  0.80087779  0.03111721    -0.22700
C55         C  0.51867669  0.77792161  0.00658001     0.00300
H56         H  0.58091147  0.84744724  0.02672975     0.14100
H57         H  0.54824328  0.80086762  0.05942228     0.14100
N58         N  0.36623730  0.37492357  0.35383811    -0.02200
C59         C  0.36846598  0.34881067  0.34589042     0.00400
C60         C  0.36943010  0.33622365  0.30576137    -0.22500
C61         C  0.36814193  0.35532348  0.28838958    -0.22700
C62         C  0.36640192  0.37894708  0.31841563     0.00300
H63         H  0.37246409  0.31630050  0.29073367     0.14100
H64         H  0.36894817  0.35259703  0.25721051     0.14100
O65         O  0.28580512  0.53239469  0.22362992    -0.80500
C66         C  0.37856807  0.61339214  0.13983001     0.98800
O67         O  0.36154226  0.61998906  0.16603118    -0.69600
O68         O  0.30287086  0.58079961  0.15263979    -0.73200
Al69       Al  0.32848889  0.59623850  0.19626697     1.49000
C70         C  0.27959020  0.55384954  0.14029362     0.94100
O71         O  0.31466966  0.51069896  0.12064047    -0.79400
O72         O  0.36697644  0.54983857  0.21454930    -0.73000
Al73       Al  0.30213233  0.52411075  0.17280472     1.90100
O74         O  0.36355126  0.53272742  0.13410857    -0.72100
O75         O  0.39153418  0.60904650  0.21731981    -0.71900
O76         O  0.38244712  0.59094963  0.13749601    -0.77600
O77         O  0.35327350  0.61649790  0.24223527    -0.75800
O78         O  0.33438385  0.56348274  0.18177808    -1.11900
O79         O  0.29417454  0.57922108  0.22931392    -0.71100
C80         C  0.28169792  0.55519155  0.24144710     0.99600
C81         C  0.34067466  0.51307787  0.11120525     0.96000
Al82       Al  0.37278239  0.57008360  0.17633468     1.55600
O83         O  0.27567762  0.53089047  0.14997280    -0.75700
C84         C  0.38063983  0.62314485  0.24449399     1.00200
C85         C  0.34546394  0.52240038  0.21458572     0.95100
O86         O  0.32131654  0.50880980  0.19409913    -0.81100
C87         C  0.38490914  0.44409410  0.27649501    -0.26900
C88         C  0.36120646  0.45052037  0.29197704     0.06700
C89         C  0.34033703  0.43472422  0.31856689     0.26300
C90         C  0.34258091  0.41205595  0.32819670    -0.11400
C91         C  0.36568632  0.40497050  0.31158340    -0.25300
C92         C  0.38716110  0.42153492  0.28613626     0.37100
C93         C  0.35661171  0.47103953  0.27680052     0.06700
F94         F  0.31746606  0.44078688  0.33459245    -0.19100
H95         H  0.32571812  0.39935570  0.34765449     0.16500
F96         F  0.41006539  0.41551723  0.27007077    -0.22800
H97         H  0.40095807  0.45560687  0.25555911     0.18300
C98         C  0.38142956  0.50052915  0.27397930     0.26300
C99         C  0.37745419  0.51760324  0.25475464    -0.11400
C100        C  0.34875816  0.50548645  0.23779303    -0.25400
C101        C  0.32364916  0.47653023  0.24210772     0.37200
C102        C  0.32766569  0.45957165  0.26133499    -0.27000
F103        F  0.40961293  0.51259411  0.28928930    -0.19200
H104        H  0.39709916  0.53992807  0.25224486     0.16500
F105        F  0.29527780  0.46411128  0.22708938    -0.22900
H106        H  0.30833725  0.43674501  0.26272129     0.18400
C107        C  0.37766131  0.47727368  0.02612644    -0.26900
C108        C  0.35202253  0.45286960  0.00212992     0.06700
C109        C  0.32250836  0.44825449  0.01430647     0.26300
C110        C  0.31894159  0.46794872  0.04953503    -0.11400
C111        C  0.34465278  0.49251801  0.07352534    -0.25300
C112        C  0.37416432  0.49687637  0.06132620     0.37100
C113        C  0.35639938  0.43270852  0.96436273     0.06700
F114        F  0.29716948  0.42518336  0.99169162    -0.19100
H115        H  0.29597855  0.46390357  0.05804149     0.16500
F116        F  0.39985412  0.52014733  0.08320453    -0.22800
H117        H  0.40055855  0.48106513  0.01769661     0.18300
C118        C  0.37874375  0.44633736  0.43732958     0.26300
C119        C  0.38248383  0.42726966  0.40171879    -0.11400
C120        C  0.36375071  0.39428980  0.39192853    -0.25400
C121        C  0.34177418  0.38059900  0.41917150     0.37200
C122        C  0.33825550  0.39965704  0.95504790    -0.27000
F123        F  0.39629085  0.47814297  0.44473796    -0.19200
H124        H  0.39977868  0.43828464  0.38138761     0.16500
F125        F  0.32308306  0.34883151  0.41060045    -0.22900
H126        H  0.32121713  0.38857073  0.97556173     0.18400
C127        C  0.44821244  0.73059939  0.41207090    -0.26900
C128        C  0.46077834  0.72210471  0.37555024     0.06700
C129        C  0.49313754  0.73826529  0.37141173     0.26300
C130        C  0.51230266  0.76067067  0.40377567    -0.11400
C131        C  0.49974812  0.76795159  0.44065041    -0.25300
C132        C  0.46745833  0.75347478  0.44424500     0.37100
C133        C  0.44004799  0.69636497  0.34224037     0.06700
F134        F  0.50630004  0.73237863  0.33614167    -0.19100
H135        H  0.53708274  0.77140224  0.40045668     0.16500
F136        F  0.45455888  0.76091269  0.47909195    -0.22800
H137        H  0.42340809  0.71887719  0.41601578     0.18300
C138        C  0.44603549  0.67232726  0.31947203     0.26300
C139        C  0.42662431  0.64866724  0.28787549    -0.11400
C140        C  0.40043330  0.64794193  0.27878039    -0.25400
C141        C  0.39388457  0.67137671  0.30228685     0.37200
C142        C  0.41359599  0.69535044  0.33347988    -0.27000
F143        F  0.47014256  0.67111066  0.32835056    -0.19200
H144        H  0.43190955  0.63061853  0.27075575     0.16500
F145        F  0.36892130  0.67171988  0.29456477    -0.22900
H146        H  0.40838792  0.71346293  0.35052458     0.18400
C147        C  0.45913214  0.69439535  0.00992315    -0.26900
C148        C  0.44745039  0.70044719  0.04795692     0.06700
C149        C  0.45802255  0.73186743  0.07058502     0.26300
C150        C  0.48011305  0.75656579  0.05574652    -0.11400
C151        C  0.49249117  0.75068511  0.01834834    -0.25300
C152        C  0.48156014  0.71936122  0.99510225     0.37100
C153        C  0.42673742  0.67454540  0.06584788     0.06700
F154        F  0.44857617  0.73883251  0.10812260    -0.19100
H155        H  0.48838591  0.78056665  0.07414924     0.16500
F156        F  0.49360737  0.71290359  0.45915561    -0.22800
H157        H  0.45146328  0.67034634  0.99217202     0.18300
C158        C  0.40037474  0.67330949  0.08649817     0.26300
C159        C  0.38449500  0.65281638  0.10968966    -0.11400
C160        C  0.39418205  0.63271835  0.11222224    -0.25400
C161        C  0.41911723  0.63220611  0.08911973     0.37200
C162        C  0.43529565  0.65309626  0.06629231    -0.27000
F163        F  0.39043964  0.69252639  0.08505628    -0.19200
H164        H  0.36483547  0.65309041  0.12623607     0.16500
F165        F  0.42886907  0.61271420  0.08998253    -0.22900
H166        H  0.45550228  0.65361547  0.05052534     0.18400
C167        C  0.17197969  0.55910229  0.07060952    -0.26900
C168        C  0.18532447  0.54043942  0.05260416     0.06700
C169        C  0.17519450  0.51949719  0.01480157     0.26300
C170        C  0.15276516  0.51803148  0.99509491    -0.11400
C171        C  0.14030174  0.53758695  0.01252752    -0.25300
C172        C  0.14969684  0.55774979  0.05081183     0.37100
C173        C  0.21018314  0.54349601  0.07316836     0.06700
F174        F  0.18804584  0.50160050  0.99622797    -0.19100
H175        H  0.14572733  0.50226326  0.96566847     0.16500
F176        F  0.13860746  0.57742168  0.06817487    -0.22800
H177        H  0.17926729  0.57518879  0.09986233     0.18300
C178        C  0.23654567  0.57313970  0.08769556     0.26300
C179        C  0.25928959  0.57609977  0.10851238    -0.11400
C180        C  0.25623236  0.54962335  0.11549586    -0.25400
C181        C  0.23011911  0.51978724  0.10003412     0.37200
C182        C  0.20742265  0.51686432  0.07904222    -0.27000
F183        F  0.24041851  0.59925413  0.08151256    -0.19200
H184        H  0.27912846  0.59934253  0.11972062     0.16500
F185        F  0.22617367  0.49344180  0.10555952    -0.22900
H186        H  0.18726892  0.49382053  0.06808239     0.18400
C187        C  0.23879354  0.57754475  0.33086197    -0.26900
C188        C  0.22343789  0.55018520  0.34313659     0.06700
C189        C  0.22795605  0.52484555  0.32265900     0.26300
C190        C  0.24725001  0.52677622  0.28999656    -0.11400
C191        C  0.26205465  0.55385119  0.27686880    -0.25300
C192        C  0.25779381  0.57942673  0.29798022     0.37100
C193        C  0.20001287  0.54698950  0.37420671     0.06700
F194        F  0.21340636  0.49811276  0.33403838    -0.19100
H195        H  0.25019145  0.50682457  0.27462160     0.16500
F196        F  0.27137242  0.60607138  0.28656167    -0.22800
H197        H  0.23510166  0.59706251  0.34592168     0.18300
C198        C  0.20746679  0.56889876  0.41178823     0.26300
C199        C  0.18402364  0.56758549  0.43895519    -0.11400
C200        C  0.15304774  0.54472103  0.42857665    -0.25400
C201        C  0.14580573  0.52231973  0.39153675     0.37200
C202        C  0.16913883  0.52335130  0.36472842    -0.27000
F203        F  0.23724508  0.59180431  0.42179417    -0.19200
H204        H  0.18986581  0.58503194  0.46745504     0.16500
F205        F  0.11598723  0.49985805  0.38101339    -0.22900
H206        H  0.16295946  0.50648246  0.33581025     0.18400
C207        C  0.43819392  0.31843852  0.44614206    -0.26900
C208        C  0.40623835  0.30578972  0.44343379     0.06700
C209        C  0.38582870  0.28225988  0.46165639     0.26300
C210        C  0.39732126  0.27193322  0.48255494    -0.11400
C211        C  0.42929387  0.28498244  0.48596013    -0.25300
C212        C  0.44972749  0.30844600  0.46757685     0.37100
C213        C  0.39439087  0.31705774  0.42132451     0.06700
F214        F  0.35487118  0.27026482  0.46072117    -0.19100
H215        H  0.38119925  0.25431644  0.49718859     0.16500
F216        F  0.48074300  0.32333132  0.47247817    -0.22800
H217        H  0.45429583  0.33651381  0.43215098     0.18300
C218        C  0.40644645  0.34949272  0.42800491     0.26300
C219        C  0.39680865  0.35979869  0.40465178    -0.11400
C220        C  0.37479211  0.33796074  0.37463267    -0.25400
C221        C  0.36181485  0.30551858  0.36909450     0.37200
C222        C  0.37160952  0.29523754  0.39221664    -0.27000
F223        F  0.42781587  0.37120040  0.45676238    -0.19200
H224        H  0.40761284  0.38488688  0.40897950     0.16500
F225        F  0.34015597  0.28373475  0.34068333    -0.22900
H226        H  0.36208967  0.27015793  0.38651234     0.18400
C227        C  0.58744615  0.27612942  0.10707636    -0.26900
C228        C  0.55601188  0.25361140  0.09953843     0.06700
C229        C  0.54224155  0.22746140  0.11423282     0.26300
C230        C  0.55931822  0.22487430  0.13792638    -0.11400
C231        C  0.59038045  0.24833786  0.14746277    -0.25300
C232        C  0.60459870  0.27358078  0.13071276     0.37100
C233        C  0.53670379  0.25965072  0.08128633     0.06700
F234        F  0.51172698  0.20558098  0.10796093    -0.19100
H235        H  0.54779085  0.20508559  0.15010018     0.16500
F236        F  0.63480447  0.29628677  0.13789719    -0.22800
H237        H  0.59841804  0.29634161  0.09574104     0.18300
C238        C  0.53464426  0.28680132  0.09951011     0.26300
C239        C  0.51310301  0.29057301  0.08623417    -0.11400
C240        C  0.49372157  0.26772602  0.05418224    -0.25400
C241        C  0.49667374  0.24126731  0.03459977     0.37200
C242        C  0.51796406  0.23716690  0.04833938    -0.27000
F243        F  0.55212161  0.30872711  0.13171176    -0.19200
H244        H  0.51101834  0.31107749  0.60156122     0.16500
F245        F  0.47784453  0.21865443  0.00379318    -0.22900
H246        H  0.51924802  0.21607992  0.03405225     0.18400
C247        C  0.53347648  0.28577329  0.44324985    -0.26900
C248        C  0.51936013  0.26280562  0.40782235     0.06700
C249        C  0.48684883  0.24432036  0.40568530     0.26300
C250        C  0.46905940  0.24838661  0.43872334    -0.11400
C251        C  0.48335448  0.27080198  0.47434063    -0.25300
C252        C  0.51572782  0.28992441  0.47605580     0.37100
C253        C  0.53886460  0.25822354  0.37368711     0.06700
F254        F  0.47232043  0.22257851  0.37161814    -0.19100
H255        H  0.44412337  0.23362178  0.43684929     0.16500
F256        F  0.53016183  0.31290272  0.50941996    -0.22800
H257        H  0.55841910  0.30030531  0.44570364     0.18300
C258        C  0.56274776  0.28410359  0.36135904     0.26300
C259        C  0.58190063  0.27986786  0.33039247    -0.11400
C260        C  0.57788492  0.24979404  0.31099681    -0.25400
C261        C  0.55384968  0.22381759  0.32328781     0.37200
C262        C  0.53457588  0.22809076  0.35422625    -0.27000
F263        F  0.56732755  0.31351863  0.37892922    -0.19200
H264        H  0.60003925  0.30033552  0.32166856     0.16500
F265        F  0.54884682  0.19426654  0.30552328    -0.22900
H266        H  0.51657982  0.20785058  0.36350917     0.18400
C267        C  0.62947253  0.93915180  0.41946921    -0.26900
C268        C  0.59733768  0.92458882  0.42505154     0.06700
C269        C  0.58195910  0.93959855  0.42161025     0.26300
C270        C  0.59825758  0.96767062  0.41091072    -0.11400
C271        C  0.62993328  0.98093382  0.40291683    -0.25300
C272        C  0.64557883  0.96683724  0.40807322     0.37100
C273        C  0.58029510  0.89402923  0.43470819     0.06700
F274        F  0.55089103  0.92613252  0.42606916    -0.19100
H275        H  0.58569339  0.97779349  0.40607866     0.16500
F276        F  0.67624889  0.97921823  0.40052900    -0.22800
H277        H  0.64208273  0.92871744  0.42316642     0.18300
C278        C  0.58621964  0.86939813  0.41468479     0.26300
C279        C  0.57282565  0.84235331  0.42729264    -0.11400
C280        C  0.55276343  0.83906969  0.45926752    -0.25400
C281        C  0.54551799  0.86277450  0.47788203     0.37200
C282        C  0.55921981  0.88998849  0.46576627    -0.27000
F283        F  0.60563878  0.87184125  0.38365869    -0.19200
H284        H  0.57944982  0.82481197  0.41341745     0.16500
F285        F  0.52702893  0.86065972  0.00984093    -0.22900
H286        H  0.55458829  0.90866192  0.48212421     0.18400
C287        C  0.61614345  0.13005198  0.30680933    -0.26900
C288        C  0.64421556  0.13404291  0.31540652     0.06700
C289        C  0.67212415  0.15831397  0.30579337     0.26300
C290        C  0.67186529  0.17728230  0.28640463    -0.11400
C291        C  0.64383596  0.17231576  0.27577386    -0.25300
C292        C  0.61585497  0.14908886  0.28727581     0.37100
C293        C  0.64427556  0.11024810  0.32897349     0.06700
F294        F  0.69963379  0.16221522  0.31242464    -0.19100
H295        H  0.69381981  0.19506509  0.27819624     0.16500
F296        F  0.58829922  0.14431370  0.27906351    -0.22800
H297        H  0.59439304  0.11147201  0.31416222     0.18300
C298        C  0.66258598  0.11883628  0.36106190     0.26300
C299        C  0.66475133  0.09590406  0.37020504    -0.11400
C300        C  0.64861267  0.06430079  0.34753550    -0.25400
C301        C  0.62995243  0.05574856  0.31600678     0.37200
C302        C  0.62773054  0.07851260  0.30699326    -0.27000
F303        F  0.67841879  0.14930561  0.38331495    -0.19200
H304        H  0.67923785  0.10279364  0.39457151     0.16500
F305        F  0.61382780  0.02526277  0.29385920    -0.22900
H306        H  0.61380560  0.07147917  0.28193912     0.18400
C307        C  0.61029844  0.11446624  0.05331925    -0.26900
C308        C  0.63750882  0.11525572  0.03626551     0.06700
C309        C  0.66599428  0.13971631  0.05482740     0.26300
C310        C  0.66697455  0.16155812  0.09055554    -0.11400
C311        C  0.63973289  0.16020670  0.10833469    -0.25300
C312        C  0.61131618  0.13673795  0.08878284     0.37100
C313        C  0.63617100  0.09079598  0.99922254     0.06700
F314        F  0.69306792  0.14303699  0.53802821    -0.19100
H315        H  0.68926270  0.17978181  0.10421095     0.16500
F316        F  0.58438835  0.13476146  0.10423410    -0.22800
H317        H  0.58808388  0.09617151  0.03953798     0.18300
C318        C  0.65354502  0.07618782  0.99530099     0.26300
C319        C  0.65425257  0.05536337  0.45943795    -0.11400
C320        C  0.63723219  0.04803491  0.42685958    -0.25400
C321        C  0.61780859  0.06048742  0.43162750     0.37200
C322        C  0.61762202  0.08194348  0.46728971    -0.27000
F323        F  0.66988548  0.08198700  0.02616280    -0.19200
H324        H  0.66897891  0.04568617  0.45667045     0.16500
F325        F  0.59929502  0.05223645  0.40173565    -0.22900
H326        H  0.60349185  0.09221666  0.46962020     0.18400
C327        C  0.02883511  0.52550415  0.57110125    -0.26900
C328        C  0.01679612  0.49360599  0.06809412     0.06700
C329        C  0.03583327  0.48053161  0.05253504     0.26300
C330        C  0.06401899  0.49752734  0.03496175    -0.11400
C331        C  0.07354544  0.52773335  0.03307341    -0.25300
C332        C  0.05689455  0.54240338  0.55383086     0.37100
C333        C  0.98261797  0.47323052  0.07081609     0.06700
F334        F  0.02579272  0.45031286  0.05080007    -0.19100
H335        H  0.07656320  0.48579594  0.01922639     0.16500
F336        F  0.06586107  0.57184836  0.55322828    -0.22800
H337        H  0.01496325  0.53641985  0.58258300     0.18300
C338        C  0.96542545  0.48449546  0.09867415     0.26300
C339        C  0.93477647  0.47378046  0.09030524    -0.11400
C340        C  0.92065994  0.45097884  0.05487402    -0.25400
C341        C  0.93608749  0.43602302  0.03047949     0.37200
C342        C  0.96677915  0.44704850  0.03844142    -0.27000
F343        F  0.97936191  0.50851924  0.13154671    -0.19200
H344        H  0.92330855  0.48570716  0.10935962     0.16500
F345        F  0.92331660  0.41440957  0.99555179    -0.22900
H346        H  0.97914809  0.43783714  0.01623529     0.18400
C347        C  0.79331892  0.40092022  0.42837491    -0.26900
C348        C  0.78477276  0.36899752  0.41400018     0.06700
C349        C  0.79995695  0.35830029  0.42872172     0.26300
C350        C  0.82378951  0.37936898  0.45642768    -0.11400
C351        C  0.83309766  0.41149054  0.46977230    -0.25300
C352        C  0.81737352  0.42207839  0.45588701     0.37100
C353        C  0.76202115  0.34765499  0.38132711     0.06700
F354        F  0.79209870  0.32754734  0.41576779    -0.19100
H355        H  0.83579284  0.37073988  0.46633072     0.16500
F356        F  0.82542518  0.45288474  0.46859500    -0.22800
H357        H  0.78211588  0.40970367  0.41717134     0.18300
C358        C  0.73275097  0.34456795  0.38319784     0.26300
C359        C  0.71239614  0.32554234  0.35095151    -0.11400
C360        C  0.72088904  0.30929301  0.31631952    -0.25400
C361        C  0.75009904  0.31211541  0.31494534     0.37200
C362        C  0.77031857  0.33113439  0.34704442    -0.27000
F363        F  0.72375278  0.35967513  0.41631445    -0.19200
H364        H  0.69001711  0.32360601  0.35307203     0.16500
F365        F  0.75962897  0.29711446  0.28231917    -0.22900
H366        H  0.79291386  0.33352382  0.34477267     0.18400
C367        C  0.82819407  0.36512883  0.07770787    -0.26900
C368        C  0.80111585  0.36646084  0.08975993     0.06700
C369        C  0.79694256  0.38789676  0.07958603     0.26300
C370        C  0.81958228  0.40793816  0.05883519    -0.11400
C371        C  0.84661076  0.40670137  0.04664945    -0.25300
C372        C  0.85070509  0.38490804  0.05604433     0.37100
C373        C  0.77732810  0.34599476  0.11324214     0.06700
F374        F  0.77059759  0.38903312  0.08890580    -0.19100
H375        H  0.81589358  0.42448806  0.55185670     0.16500
F376        F  0.87580554  0.38202294  0.04349107    -0.22800
H377        H  0.83200544  0.34887393  0.08524673     0.18300
C378        C  0.76614931  0.31341177  0.10234137     0.26300
C379        C  0.74273012  0.29446841  0.12397654    -0.11400
C380        C  0.72983171  0.30753455  0.15670426    -0.25400
C381        C  0.74126780  0.34021024  0.16774252     0.37200
C382        C  0.76487316  0.35911394  0.14640932    -0.27000
F383        F  0.77713073  0.29966680  0.07011671    -0.19200
H384        H  0.73448498  0.26944272  0.11481697     0.16500
F385        F  0.72998341  0.35414574  0.19937623    -0.22900
H386        H  0.77349615  0.38422319  0.15592985     0.18400
N387        N  0.86878590  0.42730718  0.52401298    -0.02200
C388        C  0.89751684  0.45187347  0.53639160     0.00400
C389        C  0.90718270  0.47385739  0.01623574    -0.22500
C390        C  0.88388088  0.46252713  0.99050500    -0.22700
C391        C  0.86070022  0.43390051  0.99570689     0.00300
H392        H  0.92994401  0.49451171  0.01753605     0.14100
H393        H  0.88472428  0.47301407  0.96861046     0.14100
N394        N  0.64220454  0.03047490  0.88876861    -0.02200
C395        C  0.64458694  0.00445426  0.88077325     0.00400
C396        C  0.65536386  0.99776875  0.84314241    -0.22500
C397        C  0.65950549  0.02012930  0.82712659    -0.22700
C398        C  0.65129527  0.03985029  0.85557403     0.00300
H399        H  0.65769723  0.97742164  0.82794652     0.14100
H400        H  0.66641588  0.02109262  0.79734549     0.14100
N401        N  0.46516070  0.27318084  0.00910759    -0.02200
C402        C  0.44055176  0.27736689  0.01378103     0.00400
C403        C  0.42892682  0.27745389  0.55131069    -0.22500
C404        C  0.44710925  0.27359114  0.57054227    -0.22700
C405        C  0.46897661  0.27089182  0.54400876     0.00300
H406        H  0.41007962  0.28131587  0.56391852     0.14100
H407        H  0.44492827  0.27323706  0.60076971     0.14100
O408        O  0.67046979  0.21385928  0.74697599    -0.80500
C409        C  0.60711427  0.24690105  0.67595545     0.98800
O410        O  0.59477660  0.22243426  0.68747937    -0.69600
O411        O  0.61865955  0.18637081  0.66005853    -0.73200
Al412      Al  0.61111598  0.20602597  0.71193330     1.49000
C413        C  0.64150594  0.18310487  0.64712817     0.94100
O414        O  0.69869591  0.25917694  0.67285887    -0.79400
O415        O  0.67545066  0.29069205  0.78101012    -0.73000
Al416      Al  0.68245641  0.23651679  0.71055397     1.90100
O417        O  0.69195046  0.29834135  0.70695792    -0.72100
O418        O  0.61744549  0.26925129  0.76520941    -0.71900
O419        O  0.63314093  0.27035459  0.68920280    -0.77600
O420        O  0.59728557  0.22002971  0.76259672    -0.75800
O421        O  0.64902340  0.24022736  0.71883033    -1.11900
O422        O  0.62060970  0.18345762  0.73522615    -0.71100
C423        C  0.64476280  0.19090849  0.75166661     0.99600
C424        C  0.70539270  0.28724418  0.67971516     0.96800
Al425      Al  0.65396528  0.27875766  0.73422763     1.55600
O426        O  0.66612003  0.19916584  0.66715296    -0.75700
C427        C  0.59859778  0.24607787  0.77799797     1.00200
C428        C  0.69971832  0.28991991  0.78171301     0.95100
O429        O  0.70656669  0.27307666  0.75250105    -0.81100
N430        N  0.12095883  0.53963660  0.48997755    -0.02200
C431        C  0.09425839  0.53974478  0.50128830     0.00400
C432        C  0.08458224  0.54586294  0.97313476    -0.22500
C433        C  0.10575987  0.54937331  0.94349529    -0.22700
C434        C  0.12776125  0.54544006  0.95451869     0.00300
H435        H  0.06329245  0.54570581  0.97293941     0.14100
H436        H  0.10469659  0.55329213  0.91623225     0.14100
N437        N  0.51980410  0.78692249  0.97471600    -0.02200
C438        C  0.54571026  0.81582907  0.97958482     0.00400
C439        C  0.56082598  0.82485434  0.51403180    -0.22500
C440        C  0.54374936  0.80087785  0.53111720    -0.22700
C441        C  0.51867675  0.77792165  0.50658004     0.00300
H442        H  0.58091144  0.84744728  0.52672968     0.14100
H443        H  0.54824335  0.80086772  0.55942229     0.14100
N444        N  0.36623732  0.37492356  0.85383812    -0.02200
C445        C  0.36846596  0.34881061  0.84589042     0.00400
C446        C  0.36942997  0.33622354  0.80576137    -0.22500
C447        C  0.36814182  0.35532335  0.78838958    -0.22700
C448        C  0.36640187  0.37894700  0.81841559     0.00300
H449        H  0.37246388  0.31630027  0.79073363     0.14100
H450        H  0.36894804  0.35259686  0.75721039     0.14100
O451        O  0.28580512  0.53239468  0.72362985    -0.80500
C452        C  0.37856806  0.61339209  0.63983001     0.98800
O453        O  0.36154222  0.61998896  0.66603114    -0.69600
O454        O  0.30287084  0.58079953  0.65263967    -0.73200
Al455      Al  0.32848885  0.59623844  0.69626687     1.49000
C456        C  0.27959019  0.55384947  0.64029353     0.94100
O457        O  0.31466962  0.51069894  0.62064046    -0.79400
O458        O  0.36697646  0.54983851  0.71454930    -0.73000
Al459      Al  0.30213232  0.52411072  0.67280468     1.90100
O460        O  0.36355122  0.53272743  0.63410858    -0.72100
O461        O  0.39153419  0.60904642  0.71731982    -0.71900
O462        O  0.38244720  0.59094964  0.63749607    -0.77600
O463        O  0.35327351  0.61649788  0.74223515    -0.75800
O464        O  0.33438385  0.56348271  0.68177806    -1.11900
O465        O  0.29417444  0.57922101  0.72931376    -0.71100
C466        C  0.28169784  0.55519150  0.74144697     0.99600
C467        C  0.34067463  0.51307786  0.61120528     0.96000
Al468      Al  0.37278240  0.57008358  0.67633470     1.55600
O469        O  0.27567758  0.53089040  0.64997273    -0.75700
C470        C  0.38063983  0.62314481  0.74449393     1.00200
C471        C  0.34546396  0.52240034  0.71458570     0.95100
O472        O  0.32131657  0.50880978  0.69409908    -0.81100
C473        C  0.38490908  0.44409407  0.77649511    -0.26900
C474        C  0.36120638  0.45052030  0.79197711     0.06700
C475        C  0.34033695  0.43472414  0.81856699     0.26300
C476        C  0.34258086  0.41205586  0.82819670    -0.11400
C477        C  0.36568623  0.40497040  0.81158339    -0.25300
C478        C  0.38716103  0.42153485  0.78613627     0.37100
C479        C  0.35661162  0.47103949  0.77680062     0.06700
F480        F  0.31746594  0.44078670  0.83459251    -0.19100
H481        H  0.32571798  0.39935548  0.84765451     0.16500
F482        F  0.41006534  0.41551722  0.77007085    -0.22800
H483        H  0.40095810  0.45560693  0.75555928     0.18300
C484        C  0.38142949  0.50052909  0.77397939     0.26300
C485        C  0.37745416  0.51760319  0.75475468    -0.11400
C486        C  0.34875811  0.50548640  0.73779307    -0.25400
C487        C  0.32364908  0.47653024  0.74210782     0.37200
C488        C  0.32766559  0.45957164  0.76133511    -0.27000
F489        F  0.40961288  0.51259410  0.78928946    -0.19200
H490        H  0.39709909  0.53992790  0.75224485     0.16500
F491        F  0.29527776  0.46411124  0.72708927    -0.22900
H492        H  0.30833717  0.43674499  0.76272135     0.18400
C493        C  0.37766135  0.47727379  0.52612647    -0.26900
C494        C  0.35202261  0.45286965  0.50212997     0.06700
C495        C  0.32250839  0.44825445  0.51430656     0.26300
C496        C  0.31894163  0.46794870  0.54953507    -0.11400
C497        C  0.34465275  0.49251799  0.57352540    -0.25300
C498        C  0.37416434  0.49687643  0.56132625     0.37100
C499        C  0.35639945  0.43270854  0.46436278     0.06700
F500        F  0.29716951  0.42518323  0.49169180    -0.19100
H501        H  0.29597846  0.46390352  0.55804156     0.16500
F502        F  0.39985415  0.52014753  0.58320445    -0.22800
H503        H  0.40055871  0.48106537  0.51769657     0.18300
C504        C  0.37874367  0.44633735  0.93732956     0.26300
C505        C  0.38248375  0.42726966  0.90171876    -0.11400
C506        C  0.36375067  0.39428977  0.89192850    -0.25400
C507        C  0.34177415  0.38059898  0.91917150     0.37200
C508        C  0.33825554  0.39965707  0.45504788    -0.27000
F509        F  0.39629077  0.47814296  0.94473804    -0.19200
H510        H  0.39977861  0.43828467  0.88138758     0.16500
F511        F  0.32308298  0.34883150  0.91060053    -0.22900
H512        H  0.32121706  0.38857071  0.47556176     0.18400
C513        C  0.44821239  0.73059944  0.91207087    -0.26900
C514        C  0.46077829  0.72210470  0.87555022     0.06700
C515        C  0.49313751  0.73826530  0.87141174     0.26300
C516        C  0.51230260  0.76067068  0.90377568    -0.11400
C517        C  0.49974808  0.76795162  0.94065040    -0.25300
C518        C  0.46745828  0.75347487  0.94424496     0.37100
C519        C  0.44004797  0.69636494  0.84224033     0.06700
F520        F  0.50630007  0.73237860  0.83614175    -0.19100
H521        H  0.53708270  0.77140224  0.90045669     0.16500
F522        F  0.45455887  0.76091288  0.97909189    -0.22800
H523        H  0.42340801  0.71887726  0.91601578     0.18300
C524        C  0.44603548  0.67232721  0.81947201     0.26300
C525        C  0.42662428  0.64866718  0.78787552    -0.11400
C526        C  0.40043332  0.64794187  0.77878032    -0.25400
C527        C  0.39388463  0.67137671  0.80228669     0.37200
C528        C  0.41359603  0.69535044  0.83347969    -0.27000
F529        F  0.47014255  0.67111066  0.82835063    -0.19200
H530        H  0.43190948  0.63061833  0.77075577     0.16500
F531        F  0.36892135  0.67171983  0.79456458    -0.22900
H532        H  0.40838796  0.71346301  0.85052436     0.18400
C533        C  0.45913215  0.69439536  0.50992320    -0.26900
C534        C  0.44745048  0.70044721  0.54795699     0.06700
C535        C  0.45802271  0.73186745  0.57058508     0.26300
C536        C  0.48011318  0.75656582  0.55574660    -0.11400
C537        C  0.49249127  0.75068514  0.51834841    -0.25300
C538        C  0.48156020  0.71936124  0.49510234     0.37100
C539        C  0.42673750  0.67454544  0.56584797     0.06700
F540        F  0.44857641  0.73883251  0.60812269    -0.19100
H541        H  0.48838604  0.78056666  0.57414934     0.16500
F542        F  0.49360729  0.71290356  0.95915547    -0.22800
H543        H  0.45146319  0.67034633  0.49217201     0.18300
C544        C  0.40037486  0.67330961  0.58649831     0.26300
C545        C  0.38449507  0.65281647  0.60968978    -0.11400
C546        C  0.39418203  0.63271833  0.61222224    -0.25400
C547        C  0.41911715  0.63220600  0.58911964     0.37200
C548        C  0.43529560  0.65309618  0.56629228    -0.27000
F549        F  0.39043984  0.69252660  0.58505644    -0.19200
H550        H  0.36483558  0.65309055  0.62623621     0.16500
F551        F  0.42886887  0.61271397  0.58998233    -0.22900
H552        H  0.45550225  0.65361532  0.55052520     0.18400
C553        C  0.17197965  0.55910215  0.57060950    -0.26900
C554        C  0.18532453  0.54043938  0.55260407     0.06700
C555        C  0.17519460  0.51949724  0.51480144     0.26300
C556        C  0.15276523  0.51803150  0.49509480    -0.11400
C557        C  0.14030175  0.53758687  0.51252744    -0.25300
C558        C  0.14969683  0.55774967  0.55081176     0.37100
C559        C  0.21018322  0.54349594  0.57316822     0.06700
F560        F  0.18804583  0.50160047  0.49622785    -0.19100
H561        H  0.14572740  0.50226326  0.46566834     0.16500
F562        F  0.13860740  0.57742150  0.56817479    -0.22800
H563        H  0.17926715  0.57518855  0.59986238     0.18300
C564        C  0.23654572  0.57313962  0.58769550     0.26300
C565        C  0.25928958  0.57609973  0.60851246    -0.11400
C566        C  0.25623235  0.54962327  0.61549581    -0.25400
C567        C  0.23011918  0.51978717  0.60003397     0.37200
C568        C  0.20742274  0.51686424  0.57904204    -0.27000
F569        F  0.24041852  0.59925405  0.58151264    -0.19200
H570        H  0.27912833  0.59934247  0.61972083     0.16500
F571        F  0.22617377  0.49344173  0.60555934    -0.22900
H572        H  0.18726902  0.49382046  0.56808219     0.18400
C573        C  0.23879350  0.57754471  0.83086193    -0.26900
C574        C  0.22343790  0.55018521  0.84313661     0.06700
C575        C  0.22795601  0.52484552  0.82265895     0.26300
C576        C  0.24724990  0.52677616  0.78999644    -0.11400
C577        C  0.26205454  0.55385112  0.77686866    -0.25300
C578        C  0.25779374  0.57942669  0.79798015     0.37100
C579        C  0.20001291  0.54698951  0.87420677     0.06700
F580        F  0.21340626  0.49811270  0.83403825    -0.19100
H581        H  0.25019130  0.50682448  0.77462143     0.16500
F582        F  0.27137252  0.60607142  0.78656176    -0.22800
H583        H  0.23510166  0.59706255  0.84592171     0.18300
C584        C  0.20746684  0.56889876  0.91178833     0.26300
C585        C  0.18402367  0.56758549  0.93895523    -0.11400
C586        C  0.15304778  0.54472102  0.92857670    -0.25400
C587        C  0.14580576  0.52231972  0.89153681     0.37200
C588        C  0.16913887  0.52335128  0.86472849    -0.27000
F589        F  0.23724514  0.59180429  0.92179429    -0.19200
H590        H  0.18986580  0.58503198  0.96745515     0.16500
F591        F  0.11598723  0.49985808  0.88101346    -0.22900
H592        H  0.16295951  0.50648246  0.83581032     0.18400
C593        C  0.43819393  0.31843843  0.94614193    -0.26900
C594        C  0.40623835  0.30578967  0.94343378     0.06700
C595        C  0.38582871  0.28225989  0.96165645     0.26300
C596        C  0.39732128  0.27193325  0.98255502    -0.11400
C597        C  0.42929388  0.28498244  0.98596018    -0.25300
C598        C  0.44972750  0.30844595  0.96757682     0.37100
C599        C  0.39439090  0.31705771  0.92132448     0.06700
F600        F  0.35487118  0.27026473  0.96072105    -0.19100
H601        H  0.38119923  0.25431646  0.99718873     0.16500
F602        F  0.48074303  0.32333123  0.97247802    -0.22800
H603        H  0.45429574  0.33651356  0.93215078     0.18300
C604        C  0.40644647  0.34949269  0.92800487     0.26300
C605        C  0.39680859  0.35979862  0.90465179    -0.11400
C606        C  0.37479206  0.33796069  0.87463270    -0.25400
C607        C  0.36181482  0.30551853  0.86909451     0.37200
C608        C  0.37160952  0.29523748  0.89221661    -0.27000
F609        F  0.42781579  0.37120039  0.95676246    -0.19200
H610        H  0.40761274  0.38488686  0.90897954     0.16500
F611        F  0.34015586  0.28373470  0.84068343    -0.22900
H612        H  0.36208971  0.27015795  0.88651233     0.18400
C613        C  0.58744613  0.27612943  0.60707634    -0.26900
C614        C  0.55601192  0.25361138  0.59953827     0.06700
C615        C  0.54224159  0.22746134  0.61423262     0.26300
C616        C  0.55931822  0.22487427  0.63792624    -0.11400
C617        C  0.59038041  0.24833785  0.64746269    -0.25300
C618        C  0.60459866  0.27358082  0.63071274     0.37100
C619        C  0.53670380  0.25965067  0.58128623     0.06700
F620        F  0.51172704  0.20558091  0.60796072    -0.19100
H621        H  0.54779083  0.20508555  0.65010004     0.16500
F622        F  0.63480443  0.29628675  0.63789709    -0.22800
H623        H  0.59841808  0.29634176  0.59574101     0.18300
C624        C  0.53464429  0.28680129  0.59951007     0.26300
C625        C  0.51310310  0.29057301  0.58623406    -0.11400
C626        C  0.49372162  0.26772601  0.55418215    -0.25400
C627        C  0.49667372  0.24126724  0.53459972     0.37200
C628        C  0.51796408  0.23716687  0.54833929    -0.27000
F629        F  0.55212163  0.30872705  0.63171177    -0.19200
H630        H  0.51101823  0.31107747  0.10156138     0.16500
F631        F  0.47784449  0.21865441  0.50379311    -0.22900
H632        H  0.51924811  0.21607987  0.53405210     0.18400
C633        C  0.53347649  0.28577330  0.94324983    -0.26900
C634        C  0.51936015  0.26280564  0.90782236     0.06700
C635        C  0.48684886  0.24432040  0.90568532     0.26300
C636        C  0.46905941  0.24838664  0.93872334    -0.11400
C637        C  0.48335448  0.27080197  0.97434065    -0.25300
C638        C  0.51572783  0.28992439  0.97605581     0.37100
C639        C  0.53886462  0.25822355  0.87368713     0.06700
F640        F  0.47232044  0.22257866  0.87161815    -0.19100
H641        H  0.44412344  0.23362188  0.93684922     0.16500
F642        F  0.53016190  0.31290271  0.00941991    -0.22800
H643        H  0.55841911  0.30030533  0.94570361     0.18300
C644        C  0.56274781  0.28410362  0.86135913     0.26300
C645        C  0.58190067  0.27986790  0.83039252    -0.11400
C646        C  0.57788491  0.24979405  0.81099681    -0.25400
C647        C  0.55384966  0.22381760  0.82328779     0.37200
C648        C  0.53457587  0.22809077  0.85422623    -0.27000
F649        F  0.56732750  0.31351862  0.87892930    -0.19200
H650        H  0.60003926  0.30033552  0.82166859     0.16500
F651        F  0.54884673  0.19426654  0.80552316    -0.22900
H652        H  0.51657974  0.20785055  0.86350911     0.18400
C653        C  0.62947254  0.93915180  0.91946921    -0.26900
C654        C  0.59733768  0.92458879  0.92505148     0.06700
C655        C  0.58195909  0.93959848  0.92161009     0.26300
C656        C  0.59825757  0.96767056  0.91091056    -0.11400
C657        C  0.62993331  0.98093378  0.90291674    -0.25300
C658        C  0.64557884  0.96683719  0.90807312     0.37100
C659        C  0.58029512  0.89402921  0.93470815     0.06700
F660        F  0.55089101  0.92613247  0.92606899    -0.19100
H661        H  0.58569344  0.97779342  0.90607852     0.16500
F662        F  0.67624889  0.97921815  0.90052885    -0.22800
H663        H  0.64208276  0.92871747  0.92316654     0.18300
C664        C  0.58621963  0.86939809  0.91468476     0.26300
C665        C  0.57282558  0.84235323  0.92729256    -0.11400
C666        C  0.55276339  0.83906964  0.95926747    -0.25400
C667        C  0.54551801  0.86277448  0.97788195     0.37200
C668        C  0.55921984  0.88998848  0.96576622    -0.27000
F669        F  0.60563889  0.87184128  0.88365881    -0.19200
H670        H  0.57944976  0.82481191  0.91341739     0.16500
F671        F  0.52702888  0.86065973  0.50984100    -0.22900
H672        H  0.55458832  0.90866190  0.98212418     0.18400
C673        C  0.61614345  0.13005202  0.80680944    -0.26900
C674        C  0.64421557  0.13404291  0.81540650     0.06700
C675        C  0.67212416  0.15831395  0.80579331     0.26300
C676        C  0.67186528  0.17728232  0.78640467    -0.11400
C677        C  0.64383591  0.17231582  0.77577401    -0.25300
C678        C  0.61585494  0.14908894  0.78727598     0.37100
C679        C  0.64427555  0.11024809  0.82897346     0.06700
F680        F  0.69963381  0.16221515  0.81242445    -0.19100
H681        H  0.69381976  0.19506509  0.77819626     0.16500
F682        F  0.58829917  0.14431373  0.77906366    -0.22800
H683        H  0.59439307  0.11147206  0.81416232     0.18300
C684        C  0.66258595  0.11883627  0.86106188     0.26300
C685        C  0.66475129  0.09590405  0.87020506    -0.11400
C686        C  0.64861261  0.06430077  0.84753550    -0.25400
C687        C  0.62995238  0.05574855  0.81600681     0.37200
C688        C  0.62773049  0.07851258  0.80699326    -0.27000
F689        F  0.67841867  0.14930558  0.88331501    -0.19200
H690        H  0.67923776  0.10279363  0.89457147     0.16500
F691        F  0.61382771  0.02526275  0.79385931    -0.22900
H692        H  0.61380553  0.07147914  0.78193917     0.18400
C693        C  0.61029842  0.11446624  0.55331925    -0.26900
C694        C  0.63750878  0.11525570  0.53626548     0.06700
C695        C  0.66599425  0.13971620  0.55482744     0.26300
C696        C  0.66697452  0.16155799  0.59055561    -0.11400
C697        C  0.63973287  0.16020663  0.60833478    -0.25300
C698        C  0.61131615  0.13673792  0.58878286     0.37100
C699        C  0.63617094  0.09079597  0.49922247     0.06700
F700        F  0.69306796  0.14303722  0.03802811    -0.19100
H701        H  0.68926274  0.17978165  0.60421106     0.16500
F702        F  0.58438831  0.13476147  0.60423402    -0.22800
H703        H  0.58808384  0.09617154  0.53953799     0.18300
C704        C  0.65354500  0.07618783  0.49530091     0.26300
C705        C  0.65425259  0.05536335  0.95943801    -0.11400
C706        C  0.63723222  0.04803492  0.92685964    -0.25400
C707        C  0.61780864  0.06048744  0.93162758     0.37200
C708        C  0.61762206  0.08194350  0.96728979    -0.27000
F709        F  0.66988542  0.08198697  0.52616273    -0.19200
H710        H  0.66897890  0.04568617  0.95667046     0.16500
F711        F  0.59929507  0.05223647  0.90173574    -0.22900
H712        H  0.60349194  0.09221666  0.96962030     0.18400
C713        C  0.02883512  0.52550435  0.07110124    -0.26900
C714        C  0.01679609  0.49360578  0.56809408     0.06700
C715        C  0.03583321  0.48053137  0.55253489     0.26300
C716        C  0.06401894  0.49752712  0.53496163    -0.11400
C717        C  0.07354542  0.52773318  0.53307340    -0.25300
C718        C  0.05689457  0.54240356  0.05383082     0.37100
C719        C  0.98261793  0.47323034  0.57081606     0.06700
F720        F  0.02579266  0.45031261  0.55079991    -0.19100
H721        H  0.07656313  0.48579570  0.51922621     0.16500
F722        F  0.06586124  0.57184863  0.05322843    -0.22800
H723        H  0.01496328  0.53642006  0.08258306     0.18300
C724        C  0.96542543  0.48449525  0.59867418     0.26300
C725        C  0.93477646  0.47378026  0.59030525    -0.11400
C726        C  0.92065992  0.45097866  0.55487404    -0.25400
C727        C  0.93608742  0.43602279  0.53047950     0.37200
C728        C  0.96677910  0.44704830  0.53844138    -0.27000
F729        F  0.97936188  0.50851899  0.63154679    -0.19200
H730        H  0.92330852  0.48570698  0.60935968     0.16500
F731        F  0.92331656  0.41440937  0.49555173    -0.22900
H732        H  0.97914799  0.43783697  0.51623532     0.18400
C733        C  0.79331886  0.40092021  0.92837483    -0.26900
C734        C  0.78477267  0.36899751  0.91400024     0.06700
C735        C  0.79995688  0.35830033  0.92872184     0.26300
C736        C  0.82378946  0.37936906  0.95642773    -0.11400
C737        C  0.83309763  0.41149062  0.96977224    -0.25300
C738        C  0.81737348  0.42207842  0.95588687     0.37100
C739        C  0.76202107  0.34765497  0.88132719     0.06700
F740        F  0.79209863  0.32754738  0.91576796    -0.19100
H741        H  0.83579282  0.37074001  0.96633089     0.16500
F742        F  0.82542509  0.45288475  0.96859483    -0.22800
H743        H  0.78211581  0.40970362  0.91717118     0.18300
C744        C  0.73275091  0.34456795  0.88319790     0.26300
C745        C  0.71239611  0.32554236  0.85095157    -0.11400
C746        C  0.72088900  0.30929301  0.81631959    -0.25400
C747        C  0.75009901  0.31211541  0.81494544     0.37200
C748        C  0.77031851  0.33113437  0.84704454    -0.27000
F749        F  0.72375272  0.35967513  0.91631451    -0.19200
H750        H  0.69001707  0.32360607  0.85307207     0.16500
F751        F  0.75962899  0.29711447  0.78231932    -0.22900
H752        H  0.79291381  0.33352379  0.84477283     0.18400
C753        C  0.82819414  0.36512875  0.57770791    -0.26900
C754        C  0.80111591  0.36646078  0.58975997     0.06700
C755        C  0.79694259  0.38789662  0.57958595     0.26300
C756        C  0.81958228  0.40793797  0.55883503    -0.11400
C757        C  0.84661078  0.40670121  0.54664938    -0.25300
C758        C  0.85070512  0.38490791  0.55604427     0.37100
C759        C  0.77732810  0.34599467  0.61324213     0.06700
F760        F  0.77059758  0.38903289  0.58890562    -0.19100
H761        H  0.81589359  0.42448831  0.05185693     0.16500
F762        F  0.87580565  0.38202291  0.54349117    -0.22800
H763        H  0.83200552  0.34887394  0.58524683     0.18300
C764        C  0.76614931  0.31341170  0.60234138     0.26300
C765        C  0.74273003  0.29446828  0.62397648    -0.11400
C766        C  0.72983165  0.30753446  0.65670425    -0.25400
C767        C  0.74126782  0.34021016  0.66774253     0.37200
C768        C  0.76487319  0.35911386  0.64640933    -0.27000
F769        F  0.77713082  0.29966676  0.57011680    -0.19200
H770        H  0.73448489  0.26944268  0.61481687     0.16500
F771        F  0.72998352  0.35414570  0.69937629    -0.22900
H772        H  0.77349625  0.38422313  0.65592991     0.18400
loop_ 
_geom_bond_atom_site_label_1 
_geom_bond_atom_site_label_2 
_geom_bond_distance 
_geom_bond_site_symmetry_2 
_ccdc_geom_bond_type 
N1            C2   1.357       .  A
N1          C391   1.359   1_554  A
N1          C371   1.444       .  S
C2          C340   1.475       .  S
C2          C389   1.384       .  A
C3            C4   1.372       .  A
C3          C388   1.384       .  A
C3            H6   1.083       .  S
C4            C5   1.380       .  A
C4            H7   1.082       .  S
C5          N387   1.359       .  A
C5          C351   1.483       .  S
N8           C12   1.359       .  A
N8            C9   1.359       .  A
N8          C320   1.448       .  S
C9          C271   1.475   1_545  S
C9           C10   1.382   1_545  A
C10          C11   1.371   1_565  A
C10          H13   1.083       .  S
C11          C12   1.381       .  A
C11          H14   1.082       .  S
C12         C300   1.473       .  S
N15          C16   1.359       .  A
N15         C405   1.356       .  A
N15         C251   1.443       .  S
C16         C211   1.478       .  S
C16         C403   1.384       .  A
C17          C18   1.372       .  A
C17         C402   1.384       .  A
C17          H20   1.082       .  S
C18          C19   1.380       .  A
C18          H21   1.082       .  S
C19         N401   1.356       .  A
C19         C240   1.472       .  S
O22          C37   1.257       .  A
O22         Al30   1.866       .  S
C23         C231   1.482       .  S
C23          O33   1.263       .  A
C23          O24   1.268       .  A
O24         Al26   1.922       .  S
O25          C27   1.258       .  A
O25         Al26   1.903       .  S
Al26         O34   1.901       .  S
Al26         O36   1.926       .  S
Al26         O35   1.789       .  S
C27         C311   1.491       .  S
C27          O40   1.260       .  A
O28          C38   1.258       .  A
O28         Al30   1.891       .  S
O29          C42   1.264       .  A
O29         Al39   1.906       .  S
Al30         O43   1.918       .  S
Al30         O40   1.912       .  S
Al30         O35   1.782       .  S
O31          C38   1.263       .  A
O31         Al39   1.923       .  S
O32          C41   1.260       .  A
O32         Al39   1.913       .  S
O33         Al39   1.888       .  S
O34          C41   1.257       .  A
O35         Al39   1.786       .  S
O36          C37   1.266       .  A
C37         C291   1.479       .  S
C38         C380   1.483       .  S
C41         C260   1.490       .  S
C42         C360   1.486       .  S
C42          O43   1.265       .  A
N44          C45   1.358   1_556  A
N44         C434   1.357       .  A
N44         C171   1.441   1_556  S
C45         C331   1.481       .  S
C45         C432   1.385   1_554  A
C46          C47   1.371       .  A
C46         C431   1.385       .  A
C46          H49   1.082       .  S
C47          C48   1.379       .  A
C47          H50   1.082       .  S
C48         N430   1.357       .  A
C48         C200   1.473       .  S
N51          C52   1.358       .  A
N51         C441   1.359       .  A
N51         C131   1.443       .  S
C52         C280   1.473       .  S
C52         C439   1.381       .  A
C53          C54   1.370       .  A
C53         C438   1.381   1_554  A
C53          H56   1.082       .  S
C54          C55   1.382       .  A
C54          H57   1.082       .  S
C55         N437   1.359   1_554  A
C55         C151   1.477       .  S
N58          C62   1.358       .  A
N58          C59   1.359       .  A
N58         C120   1.446       .  S
C59         C220   1.478       .  S
C59          C60   1.384       .  A
C60          C61   1.371       .  A
C60          H63   1.082       .  S
C61          C62   1.381       .  A
C61          H64   1.082       .  S
C62          C91   1.476       .  S
O65          C80   1.261       .  A
O65         Al73   1.896       .  S
C66         C160   1.479       .  S
C66          O76   1.261       .  A
C66          O67   1.264       .  A
O67         Al69   1.906       .  S
O68          C70   1.258       .  A
O68         Al69   1.888       .  S
Al69         O77   1.895       .  S
Al69         O79   1.906       .  S
Al69         O78   1.786       .  S
C70         C180   1.487       .  S
C70          O83   1.262       .  A
O71          C81   1.263       .  A
O71         Al73   1.910       .  S
O72          C85   1.262       .  A
O72         Al82   1.894       .  S
Al73         O86   1.912       .  S
Al73         O83   1.919       .  S
Al73         O78   1.787       .  S
O74          C81   1.262       .  A
O74         Al82   1.913       .  S
O75          C84   1.261       .  A
O75         Al82   1.916       .  S
O76         Al82   1.895       .  S
O77          C84   1.257       .  A
O78         Al82   1.788       .  S
O79          C80   1.261       .  A
C80         C191   1.484       .  S
C81         C111   1.491       .  S
C84         C140   1.484       .  S
C85         C100   1.481       .  S
C85          O86   1.264       .  A
C87          C88   1.403       .  A
C87          C92   1.394       .  A
C87          H97   1.083       .  S
C88          C93   1.480       .  S
C88          C89   1.408       .  A
C89          C90   1.399       .  A
C89          F94   1.357       .  S
C90          C91   1.402       .  A
C90          H95   1.083       .  S
C91          C92   1.405       .  A
C92          F96   1.358       .  S
C93          C98   1.407       .  A
C93         C102   1.402       .  A
C98          C99   1.399       .  A
C98         F103   1.358       .  S
C99         C100   1.406       .  A
C99         H104   1.083       .  S
C100        C101   1.410       .  A
C101        C102   1.394       .  A
C101        F105   1.358       .  S
C102        H106   1.083       .  S
C107        C108   1.403       .  A
C107        C112   1.399       .  A
C107        H117   1.083       .  S
C108        C113   1.490   1_554  S
C108        C109   1.408       .  A
C109        C110   1.403       .  A
C109        F114   1.357   1_554  S
C110        C111   1.407       .  A
C110        H115   1.083       .  S
C111        C112   1.412       .  A
C112        F116   1.358       .  S
C113        C122   1.406       .  A
C113        C504   1.409       .  A
C118        C119   1.399       .  A
C118        C499   1.409       .  A
C118        F123   1.357       .  S
C119        C120   1.404       .  A
C119        H124   1.082       .  S
C120        C121   1.407       .  A
C121        C508   1.401       .  A
C121        F125   1.357       .  S
C122        C507   1.401       .  A
C122        H126   1.083       .  S
C127        C128   1.407       .  A
C127        C132   1.401       .  A
C127        H137   1.083       .  S
C128        C133   1.491       .  S
C128        C129   1.409       .  A
C129        C130   1.399       .  A
C129        F134   1.357       .  S
C130        C131   1.403       .  A
C130        H135   1.082       .  S
C131        C132   1.406       .  A
C132        F136   1.356       .  S
C133        C138   1.410       .  A
C133        C142   1.406       .  A
C138        C139   1.400       .  A
C138        F143   1.358       .  S
C139        C140   1.405       .  A
C139        H144   1.083       .  S
C140        C141   1.408       .  A
C141        C142   1.400       .  A
C141        F145   1.357       .  S
C142        H146   1.083       .  S
C147        C148   1.407       .  A
C147        C152   1.403   1_554  A
C147        H157   1.083   1_554  S
C148        C153   1.481       .  S
C148        C149   1.406       .  A
C149        C150   1.390       .  A
C149        F154   1.358       .  S
C150        C151   1.401       .  A
C150        H155   1.084       .  S
C151        C152   1.406   1_554  A
C152        F542   1.357       .  S
C153        C158   1.405       .  A
C153        C162   1.404       .  A
F156        C538   1.357       .  S
C158        C159   1.394       .  A
C158        F163   1.358       .  S
C159        C160   1.406       .  A
C159        H164   1.083       .  S
C160        C161   1.408       .  A
C161        C162   1.399       .  A
C161        F165   1.357       .  S
C162        H166   1.083       .  S
C167        C168   1.405       .  A
C167        C172   1.398       .  A
C167        H177   1.084       .  S
C168        C173   1.483       .  S
C168        C169   1.406       .  A
C169        C170   1.399   1_554  A
C169        F174   1.357   1_554  S
C170        C171   1.405   1_556  A
C170        H175   1.083       .  S
C171        C172   1.405       .  A
C172        F176   1.357       .  S
C173        C178   1.405       .  A
C173        C182   1.404       .  A
C178        C179   1.398       .  A
C178        F183   1.358       .  S
C179        C180   1.408       .  A
C179        H184   1.083       .  S
C180        C181   1.411       .  A
C181        C182   1.401       .  A
C181        F185   1.357       .  S
C182        H186   1.083       .  S
C187        C188   1.401       .  A
C187        C192   1.397       .  A
C187        H197   1.083       .  S
C188        C193   1.476       .  S
C188        C189   1.404       .  A
C189        C190   1.398       .  A
C189        F194   1.357       .  S
C190        C191   1.407       .  A
C190        H195   1.083       .  S
C191        C192   1.412       .  A
C192        F196   1.358       .  S
C193        C198   1.408       .  A
C193        C202   1.401       .  A
C198        C199   1.402       .  A
C198        F203   1.357       .  S
C199        C200   1.402       .  A
C199        H204   1.084       .  S
C200        C201   1.403       .  A
C201        C202   1.393       .  A
C201        F205   1.358       .  S
C202        H206   1.084       .  S
C207        C208   1.405       .  A
C207        C212   1.397       .  A
C207        H217   1.083       .  S
C208        C213   1.479       .  S
C208        C209   1.404       .  A
C209        C210   1.395       .  A
C209        F214   1.358       .  S
C210        C211   1.405       .  A
C210        H215   1.083       .  S
C211        C212   1.406       .  A
C212        F216   1.356       .  S
C213        C218   1.407       .  A
C213        C222   1.402       .  A
C218        C219   1.397       .  A
C218        F223   1.357       .  S
C219        C220   1.403       .  A
C219        H224   1.083       .  S
C220        C221   1.407       .  A
C221        C222   1.395       .  A
C221        F225   1.358       .  S
C222        H226   1.084       .  S
C227        C228   1.402       .  A
C227        C232   1.397       .  A
C227        H237   1.084       .  S
C228        C233   1.476       .  S
C228        C229   1.404       .  A
C229        C230   1.397       .  A
C229        F234   1.358       .  S
C230        C231   1.406       .  A
C230        H235   1.083       .  S
C231        C232   1.411       .  A
C232        F236   1.358       .  S
C233        C238   1.405       .  A
C233        C242   1.406       .  A
C238        C239   1.392       .  A
C238        F243   1.358       .  S
C239        C240   1.400       .  A
C239        H630   1.084       .  S
C240        C241   1.404       .  A
C241        C242   1.401       .  A
C241        F245   1.357       .  S
C242        H246   1.083       .  S
H244        C625   1.084       .  S
C247        C248   1.405       .  A
C247        C252   1.397       .  A
C247        H257   1.083       .  S
C248        C253   1.489       .  S
C248        C249   1.409       .  A
C249        C250   1.403       .  A
C249        F254   1.357       .  S
C250        C251   1.404       .  A
C250        H255   1.083       .  S
C251        C252   1.405       .  A
C252        F256   1.356       .  S
C253        C258   1.406       .  A
C253        C262   1.405       .  A
C258        C259   1.399       .  A
C258        F263   1.358       .  S
C259        C260   1.407       .  A
C259        H264   1.083       .  S
C260        C261   1.411       .  A
C261        C262   1.403       .  A
C261        F265   1.357       .  S
C262        H266   1.083       .  S
C267        C268   1.406       .  A
C267        C272   1.397       .  A
C267        H277   1.083       .  S
C268        C273   1.488       .  S
C268        C269   1.410       .  A
C269        C270   1.400       .  A
C269        F274   1.357       .  S
C270        C271   1.402       .  A
C270        H275   1.084       .  S
C271        C272   1.404       .  A
C272        F276   1.358       .  S
C273        C278   1.412       .  A
C273        C282   1.404       .  A
C278        C279   1.400       .  A
C278        F283   1.357       .  S
C279        C280   1.400       .  A
C279        H284   1.083       .  S
C280        C281   1.405       .  A
C281        C282   1.396       .  A
C281        F671   1.358       .  S
C282        H286   1.083       .  S
F285        C667   1.358   1_554  S
C287        C288   1.406       .  A
C287        C292   1.400       .  A
C287        H297   1.083       .  S
C288        C293   1.477       .  S
C288        C289   1.402       .  A
C289        C290   1.392       .  A
C289        F294   1.358       .  S
C290        C291   1.407       .  A
C290        H295   1.083       .  S
C291        C292   1.407       .  A
C292        F296   1.357       .  S
C293        C298   1.409       .  A
C293        C302   1.401       .  A
C298        C299   1.400       .  A
C298        F303   1.357       .  S
C299        C300   1.402       .  A
C299        H304   1.083       .  S
C300        C301   1.404       .  A
C301        C302   1.391       .  A
C301        F305   1.358       .  S
C302        H306   1.083       .  S
C307        C308   1.407       .  A
C307        C312   1.404       .  A
C307        H317   1.083       .  S
C308        C313   1.496   1_554  S
C308        C309   1.409       .  A
C309        C310   1.400       .  A
C309        F700   1.357       .  S
C310        C311   1.406       .  A
C310        H315   1.083       .  S
C311        C312   1.411       .  A
C312        F316   1.357       .  S
C313        C318   1.410       .  A
C313        C708   1.408       .  A
F314        C695   1.357       .  S
C318        C705   1.400       .  A
C318        F323   1.357   1_556  S
C319        C320   1.403       .  A
C319        C704   1.400       .  A
C319        H324   1.082       .  S
C320        C321   1.408       .  A
C321        C322   1.404       .  A
C321        F325   1.356       .  S
C322        C699   1.408       .  A
C322        H326   1.083       .  S
C327        C332   1.394       .  A
C327        C714   1.407       .  A
C327        H337   1.082       .  S
C328        C333   1.493   1_455  S
C328        C329   1.411       .  A
C328        C713   1.407       .  A
C329        C330   1.405       .  A
C329        F334   1.357       .  S
C330        C331   1.404       .  A
C330        H335   1.083       .  S
C331        C718   1.403       .  A
C332        C717   1.403       .  A
C332        F336   1.358       .  S
C333        C338   1.411       .  A
C333        C342   1.407       .  A
C338        C339   1.402       .  A
C338        F343   1.357       .  S
C339        C340   1.402       .  A
C339        H344   1.083       .  S
C340        C341   1.404       .  A
C341        C342   1.397       .  A
C341        F345   1.358   1_554  S
C342        H346   1.082       .  S
C347        C348   1.404       .  A
C347        C352   1.399       .  A
C347        H357   1.083       .  S
C348        C353   1.483       .  S
C348        C349   1.407       .  A
C349        C350   1.397       .  A
C349        F354   1.357       .  S
C350        C351   1.403       .  A
C350        H355   1.083       .  S
C351        C352   1.407       .  A
C352        F356   1.357       .  S
C353        C358   1.406       .  A
C353        C362   1.402       .  A
C358        C359   1.402       .  A
C358        F363   1.357       .  S
C359        C360   1.408       .  A
C359        H364   1.083       .  S
C360        C361   1.411       .  A
C361        C362   1.395       .  A
C361        F365   1.358       .  S
C362        H366   1.083       .  S
C367        C368   1.409       .  A
C367        C372   1.404       .  A
C367        H377   1.083       .  S
C368        C373   1.487       .  S
C368        C369   1.406       .  A
C369        C370   1.391       .  A
C369        F374   1.358       .  S
C370        C371   1.404       .  A
C370        H761   1.083       .  S
C371        C372   1.406       .  A
C372        F376   1.354       .  S
C373        C378   1.407       .  A
C373        C382   1.405       .  A
H375        C756   1.083       .  S
C378        C379   1.400       .  A
C378        F383   1.357       .  S
C379        C380   1.407       .  A
C379        H384   1.083       .  S
C380        C381   1.409       .  A
C381        C382   1.396       .  A
C381        F385   1.358       .  S
C382        H386   1.083       .  S
N387        C388   1.357       .  A
N387        C757   1.444       .  S
C388        C726   1.475       .  S
C389        C390   1.372   1_554  A
C389        H392   1.083       .  S
C390        C391   1.380       .  A
C390        H393   1.082       .  S
C391        C737   1.483       .  S
N394        C398   1.359       .  A
N394        C395   1.359       .  A
N394        C706   1.448       .  S
C395        C657   1.475   1_545  S
C395        C396   1.382   1_545  A
C396        C397   1.371   1_565  A
C396        H399   1.083       .  S
C397        C398   1.381       .  A
C397        H400   1.082       .  S
C398        C686   1.473       .  S
N401        C402   1.359       .  A
N401        C637   1.443   1_554  S
C402        C597   1.478   1_554  S
C403        C404   1.372       .  A
C403        H406   1.082       .  S
C404        C405   1.380       .  A
C404        H407   1.082       .  S
C405        C626   1.472       .  S
O408        C423   1.257       .  A
O408       Al416   1.866       .  S
C409        C617   1.482       .  S
C409        O419   1.263       .  A
C409        O410   1.268       .  A
O410       Al412   1.922       .  S
O411        C413   1.258       .  A
O411       Al412   1.903       .  S
Al412       O420   1.901       .  S
Al412       O422   1.926       .  S
Al412       O421   1.789       .  S
C413        C697   1.491       .  S
C413        O426   1.260       .  A
O414        C424   1.258       .  A
O414       Al416   1.891       .  S
O415        C428   1.264       .  A
O415       Al425   1.906       .  S
Al416       O429   1.918       .  S
Al416       O426   1.912       .  S
Al416       O421   1.782       .  S
O417        C424   1.263       .  A
O417       Al425   1.923       .  S
O418        C427   1.260       .  A
O418       Al425   1.913       .  S
O419       Al425   1.888       .  S
O420        C427   1.257       .  A
O421       Al425   1.786       .  S
O422        C423   1.266       .  A
C423        C677   1.479       .  S
C424        C766   1.483       .  S
C427        C646   1.490       .  S
C428        C746   1.486       .  S
C428        O429   1.265       .  A
N430        C431   1.358       .  A
N430        C557   1.441       .  S
C431        C717   1.481       .  S
C432        C433   1.371       .  A
C432        H435   1.082       .  S
C433        C434   1.379       .  A
C433        H436   1.082       .  S
C434        C586   1.473       .  S
N437        C438   1.358       .  A
N437        C517   1.443       .  S
C438        C666   1.473       .  S
C439        C440   1.370       .  A
C439        H442   1.082       .  S
C440        C441   1.382       .  A
C440        H443   1.082       .  S
C441        C537   1.477       .  S
N444        C448   1.358       .  A
N444        C445   1.359       .  A
N444        C506   1.446       .  S
C445        C606   1.478       .  S
C445        C446   1.384       .  A
C446        C447   1.371       .  A
C446        H449   1.082       .  S
C447        C448   1.381       .  A
C447        H450   1.082       .  S
C448        C477   1.476       .  S
O451        C466   1.261       .  A
O451       Al459   1.896       .  S
C452        C546   1.479       .  S
C452        O462   1.261       .  A
C452        O453   1.264       .  A
O453       Al455   1.906       .  S
O454        C456   1.258       .  A
O454       Al455   1.888       .  S
Al455       O463   1.895       .  S
Al455       O465   1.906       .  S
Al455       O464   1.786       .  S
C456        C566   1.487       .  S
C456        O469   1.262       .  A
O457        C467   1.263       .  A
O457       Al459   1.910       .  S
O458        C471   1.262       .  A
O458       Al468   1.894       .  S
Al459       O472   1.912       .  S
Al459       O469   1.919       .  S
Al459       O464   1.787       .  S
O460        C467   1.262       .  A
O460       Al468   1.913       .  S
O461        C470   1.261       .  A
O461       Al468   1.916       .  S
O462       Al468   1.895       .  S
O463        C470   1.257       .  A
O464       Al468   1.788       .  S
O465        C466   1.261       .  A
C466        C577   1.484       .  S
C467        C497   1.490       .  S
C470        C526   1.484       .  S
C471        C486   1.481       .  S
C471        O472   1.264       .  A
C473        C474   1.403       .  A
C473        C478   1.394       .  A
C473        H483   1.083       .  S
C474        C479   1.480       .  S
C474        C475   1.408       .  A
C475        C476   1.399       .  A
C475        F480   1.357       .  S
C476        C477   1.402       .  A
C476        H481   1.083       .  S
C477        C478   1.405       .  A
C478        F482   1.358       .  S
C479        C484   1.407       .  A
C479        C488   1.402       .  A
C484        C485   1.399       .  A
C484        F489   1.358       .  S
C485        C486   1.406       .  A
C485        H490   1.083       .  S
C486        C487   1.410       .  A
C487        C488   1.394       .  A
C487        F491   1.358       .  S
C488        H492   1.083       .  S
C493        C494   1.403       .  A
C493        C498   1.399       .  A
C493        H503   1.083       .  S
C494        C499   1.490       .  S
C494        C495   1.408       .  A
C495        C496   1.403       .  A
C495        F500   1.357       .  S
C496        C497   1.407       .  A
C496        H501   1.083       .  S
C497        C498   1.412       .  A
C498        F502   1.358       .  S
C499        C508   1.406       .  A
C504        C505   1.399       .  A
C504        F509   1.357       .  S
C505        C506   1.404       .  A
C505        H510   1.082       .  S
C506        C507   1.407       .  A
C507        F511   1.357       .  S
C508        H512   1.083       .  S
C513        C514   1.407       .  A
C513        C518   1.401       .  A
C513        H523   1.083       .  S
C514        C519   1.491       .  S
C514        C515   1.409       .  A
C515        C516   1.399       .  A
C515        F520   1.357       .  S
C516        C517   1.403       .  A
C516        H521   1.082       .  S
C517        C518   1.406       .  A
C518        F522   1.356       .  S
C519        C524   1.410       .  A
C519        C528   1.406       .  A
C524        C525   1.400       .  A
C524        F529   1.358       .  S
C525        C526   1.405       .  A
C525        H530   1.083       .  S
C526        C527   1.408       .  A
C527        C528   1.400       .  A
C527        F531   1.357       .  S
C528        H532   1.083       .  S
C533        C534   1.407       .  A
C533        C538   1.403       .  A
C533        H543   1.083       .  S
C534        C539   1.481       .  S
C534        C535   1.406       .  A
C535        C536   1.390       .  A
C535        F540   1.358       .  S
C536        C537   1.401       .  A
C536        H541   1.084       .  S
C537        C538   1.406       .  A
C539        C544   1.405       .  A
C539        C548   1.404       .  A
C544        C545   1.394       .  A
C544        F549   1.358       .  S
C545        C546   1.406       .  A
C545        H550   1.083       .  S
C546        C547   1.408       .  A
C547        C548   1.399       .  A
C547        F551   1.357       .  S
C548        H552   1.083       .  S
C553        C554   1.405       .  A
C553        C558   1.398       .  A
C553        H563   1.084       .  S
C554        C559   1.483       .  S
C554        C555   1.406       .  A
C555        C556   1.399       .  A
C555        F560   1.357       .  S
C556        C557   1.405       .  A
C556        H561   1.083       .  S
C557        C558   1.405       .  A
C558        F562   1.357       .  S
C559        C564   1.405       .  A
C559        C568   1.404       .  A
C564        C565   1.398       .  A
C564        F569   1.358       .  S
C565        C566   1.408       .  A
C565        H570   1.083       .  S
C566        C567   1.411       .  A
C567        C568   1.401       .  A
C567        F571   1.357       .  S
C568        H572   1.083       .  S
C573        C574   1.401       .  A
C573        C578   1.397       .  A
C573        H583   1.083       .  S
C574        C579   1.476       .  S
C574        C575   1.404       .  A
C575        C576   1.398       .  A
C575        F580   1.357       .  S
C576        C577   1.407       .  A
C576        H581   1.083       .  S
C577        C578   1.412       .  A
C578        F582   1.358       .  S
C579        C584   1.408       .  A
C579        C588   1.401       .  A
C584        C585   1.402       .  A
C584        F589   1.357       .  S
C585        C586   1.402       .  A
C585        H590   1.084       .  S
C586        C587   1.403       .  A
C587        C588   1.393       .  A
C587        F591   1.358       .  S
C588        H592   1.084       .  S
C593        C594   1.405       .  A
C593        C598   1.397       .  A
C593        H603   1.083       .  S
C594        C599   1.479       .  S
C594        C595   1.404       .  A
C595        C596   1.395       .  A
C595        F600   1.358       .  S
C596        C597   1.405       .  A
C596        H601   1.083       .  S
C597        C598   1.406       .  A
C598        F602   1.356       .  S
C599        C604   1.407       .  A
C599        C608   1.402       .  A
C604        C605   1.397       .  A
C604        F609   1.357       .  S
C605        C606   1.403       .  A
C605        H610   1.083       .  S
C606        C607   1.407       .  A
C607        C608   1.395       .  A
C607        F611   1.358       .  S
C608        H612   1.084       .  S
C613        C614   1.402       .  A
C613        C618   1.397       .  A
C613        H623   1.084       .  S
C614        C619   1.476       .  S
C614        C615   1.404       .  A
C615        C616   1.397       .  A
C615        F620   1.358       .  S
C616        C617   1.406       .  A
C616        H621   1.083       .  S
C617        C618   1.411       .  A
C618        F622   1.358       .  S
C619        C624   1.405       .  A
C619        C628   1.406       .  A
C624        C625   1.392       .  A
C624        F629   1.358       .  S
C625        C626   1.400       .  A
C626        C627   1.404       .  A
C627        C628   1.401       .  A
C627        F631   1.357       .  S
C628        H632   1.083       .  S
C633        C634   1.405       .  A
C633        C638   1.397       .  A
C633        H643   1.083       .  S
C634        C639   1.489       .  S
C634        C635   1.409       .  A
C635        C636   1.403       .  A
C635        F640   1.357       .  S
C636        C637   1.404       .  A
C636        H641   1.083       .  S
C637        C638   1.405       .  A
C638        F642   1.356   1_556  S
C639        C644   1.406       .  A
C639        C648   1.405       .  A
C644        C645   1.399       .  A
C644        F649   1.358       .  S
C645        C646   1.407       .  A
C645        H650   1.083       .  S
C646        C647   1.411       .  A
C647        C648   1.403       .  A
C647        F651   1.357       .  S
C648        H652   1.083       .  S
C653        C654   1.406       .  A
C653        C658   1.397       .  A
C653        H663   1.083       .  S
C654        C659   1.488       .  S
C654        C655   1.410       .  A
C655        C656   1.400       .  A
C655        F660   1.357       .  S
C656        C657   1.402       .  A
C656        H661   1.084       .  S
C657        C658   1.404       .  A
C658        F662   1.358       .  S
C659        C664   1.412       .  A
C659        C668   1.404       .  A
C664        C665   1.400       .  A
C664        F669   1.357       .  S
C665        C666   1.400       .  A
C665        H670   1.083       .  S
C666        C667   1.405       .  A
C667        C668   1.396       .  A
C668        H672   1.083       .  S
C673        C674   1.406       .  A
C673        C678   1.400       .  A
C673        H683   1.083       .  S
C674        C679   1.477       .  S
C674        C675   1.402       .  A
C675        C676   1.392       .  A
C675        F680   1.358       .  S
C676        C677   1.407       .  A
C676        H681   1.083       .  S
C677        C678   1.407       .  A
C678        F682   1.357       .  S
C679        C684   1.409       .  A
C679        C688   1.401       .  A
C684        C685   1.400       .  A
C684        F689   1.357       .  S
C685        C686   1.402       .  A
C685        H690   1.083       .  S
C686        C687   1.404       .  A
C687        C688   1.391       .  A
C687        F691   1.358       .  S
C688        H692   1.083       .  S
C693        C694   1.407       .  A
C693        C698   1.404       .  A
C693        H703   1.083       .  S
C694        C699   1.496       .  S
C694        C695   1.409       .  A
C695        C696   1.400       .  A
C696        C697   1.406       .  A
C696        H701   1.083       .  S
C697        C698   1.411       .  A
C698        F702   1.357       .  S
C699        C704   1.410       .  A
C704        F709   1.357       .  S
C705        C706   1.403       .  A
C705        H710   1.082       .  S
C706        C707   1.408       .  A
C707        C708   1.404       .  A
C707        F711   1.356       .  S
C708        H712   1.083       .  S
C713        C718   1.394       .  A
C713        H723   1.082       .  S
C714        C719   1.493   1_455  S
C714        C715   1.411       .  A
C715        C716   1.405       .  A
C715        F720   1.357       .  S
C716        C717   1.404       .  A
C716        H721   1.083       .  S
C718        F722   1.358       .  S
C719        C724   1.411       .  A
C719        C728   1.407       .  A
C724        C725   1.402       .  A
C724        F729   1.357       .  S
C725        C726   1.402       .  A
C725        H730   1.083       .  S
C726        C727   1.404       .  A
C727        C728   1.397       .  A
C727        F731   1.358       .  S
C728        H732   1.082       .  S
C733        C734   1.404       .  A
C733        C738   1.399       .  A
C733        H743   1.083       .  S
C734        C739   1.483       .  S
C734        C735   1.407       .  A
C735        C736   1.397       .  A
C735        F740   1.357       .  S
C736        C737   1.403       .  A
C736        H741   1.083       .  S
C737        C738   1.407       .  A
C738        F742   1.357       .  S
C739        C744   1.406       .  A
C739        C748   1.402       .  A
C744        C745   1.402       .  A
C744        F749   1.357       .  S
C745        C746   1.408       .  A
C745        H750   1.083       .  S
C746        C747   1.411       .  A
C747        C748   1.395       .  A
C747        F751   1.358       .  S
C748        H752   1.083       .  S
C753        C754   1.409       .  A
C753        C758   1.404       .  A
C753        H763   1.083       .  S
C754        C759   1.487       .  S
C754        C755   1.406       .  A
C755        C756   1.391       .  A
C755        F760   1.358       .  S
C756        C757   1.404       .  A
C757        C758   1.406       .  A
C758        F762   1.354       .  S
C759        C764   1.407       .  A
C759        C768   1.405       .  A
C764        C765   1.400       .  A
C764        F769   1.357       .  S
C765        C766   1.407       .  A
C765        H770   1.083       .  S
C766        C767   1.409       .  A
C767        C768   1.396       .  A
C767        F771   1.358       .  S
C768        H772   1.083       .  S
