geometry optimzed in LAMMPS
_audit_creation_date              2020-12-01 
_audit_creation_method            'lammps2cif' 
_symmetry_space_group_name_H-M    'P1' 
_symmetry_Int_Tables_number       1 
_symmetry_cell_setting            triclinic 
loop_ 
_symmetry_equiv_pos_as_xyz 
  x,y,z 
_cell_length_a                    47.81624119 
_cell_length_b                    47.57550040519218 
_cell_length_c                    54.65921603817472 
_cell_angle_alpha                 90.19652672566829 
_cell_angle_beta                  90.14457752911477 
_cell_angle_gamma                 120.03877278955743 
loop_ 
_atom_site_label 
_atom_site_type_symbol 
_atom_site_fract_x 
_atom_site_fract_y 
_atom_site_fract_z 
_atom_site_charge 
Zn1        Zn  0.81193040  0.18853025  0.15049300     1.49700
Zn2        Zn  0.81041571  0.12051652  0.15384675     1.49400
Zn3        Zn  0.87834321  0.18777859  0.15576104     1.49100
Zn4        Zn  0.83044595  0.16593083  0.20114154     1.49500
O5          O  0.83275030  0.16576380  0.16530032    -1.84200
O6          O  0.77169293  0.15774043  0.13053363    -0.74800
O7          O  0.84036591  0.11147915  0.13393295    -0.74600
O8          O  0.88994296  0.22782853  0.13558331    -0.74100
O9          O  0.77179112  0.11118499  0.13311224    -0.74800
O10         O  0.84360889  0.22714674  0.12979178    -0.74400
O11         O  0.88726088  0.15772303  0.13553098    -0.75000
O12         O  0.87490116  0.18667106  0.21680919    -0.74400
O13         O  0.79457022  0.08824560  0.18182641    -0.75100
O14         O  0.90835380  0.20090181  0.18533816    -0.74500
O15         O  0.80653606  0.12022025  0.21438073    -0.75000
O16         O  0.80803604  0.19022551  0.21217956    -0.74900
O17         O  0.79672453  0.20655094  0.17719472    -0.74700
C18         C  0.75906800  0.12756981  0.12553394     0.77100
C19         C  0.87021339  0.12826871  0.12859073     0.77600
C20         C  0.87399535  0.24017945  0.12636644     0.76600
C21         C  0.90343170  0.19880424  0.20835011     0.76900
C22         C  0.79462487  0.09197677  0.20491589     0.78100
C23         C  0.79634143  0.20509506  0.20043145     0.77100
C24         C  0.10712374  0.33416651  0.35856026     0.80200
N25         N  0.08391164  0.31347151  0.34285675    -0.78100
C26         C  0.09027403  0.29810088  0.32474037     0.82600
N27         N  0.12091421  0.30348400  0.32227445    -0.78100
C28         C  0.14466981  0.32379497  0.33821875     0.82700
N29         N  0.13771757  0.33940236  0.35618696    -0.79800
C30         C  0.65892850  0.88808004  0.35279093     0.80200
N31         N  0.65482826  0.85762907  0.35171066    -0.78100
C32         C  0.67032040  0.85001199  0.33412073     0.82600
N33         N  0.68926457  0.87285313  0.31730218    -0.78100
C34         C  0.69326644  0.90323544  0.31846832     0.82700
N35         N  0.67819312  0.91037646  0.33623845    -0.79800
C36         C  0.03041849  0.45717779  0.99005135     0.80200
N37         N  0.01379749  0.43547909  0.00779741    -0.78100
C38         C  0.99390169  0.43923491  0.02322826     0.82600
N39         N  0.99045529  0.46585152  0.02092063    -0.78100
C40         C  0.00732533  0.48849762  0.00330818     0.82700
N41         N  0.02714637  0.48391329  0.98775538    -0.79800
C42         C  0.54388194  0.97794123  0.98415352     0.80200
N43         N  0.56624908  0.99358756  0.00177041    -0.78100
C44         C  0.56107506  0.00885392  0.02065013     0.82600
N45         N  0.53266151  0.00907811  0.02157368    -0.78100
C46         C  0.50958840  0.99323435  0.00385656     0.82700
N47         N  0.51528091  0.97747846  0.98525632    -0.79800
Zn48       Zn  0.51967975  0.48039424  0.51573044     1.49700
Zn49       Zn  0.49792069  0.50083739  0.46555881     1.49400
Zn50       Zn  0.45161489  0.47868167  0.51194019     1.49100
Zn51       Zn  0.51789448  0.54681924  0.51279348     1.49500
O52         O  0.49690613  0.50159599  0.50148835    -1.84200
O53         O  0.53801652  0.46594517  0.48849342    -0.74800
O54         O  0.45266388  0.47782846  0.45095905    -0.74600
O55         O  0.44244265  0.44014698  0.53264242    -0.74100
O56         O  0.52197791  0.47830275  0.45384067    -0.74800
O57         O  0.48871130  0.43992231  0.53548733    -0.74400
O58         O  0.42059804  0.46239273  0.48330758    -0.75000
O59         O  0.48630746  0.55530762  0.53100972    -0.74400
O60         O  0.52066373  0.54657905  0.45210980    -0.75100
O61         O  0.44036868  0.50812579  0.53072253    -0.74500
O62         O  0.53455023  0.57870219  0.48473183    -0.75000
O63         O  0.55633615  0.55756190  0.53428152    -0.74900
O64         O  0.55851135  0.51210695  0.53663013    -0.74700
C65         C  0.53693119  0.46640697  0.46522781     0.77100
C66         C  0.42444106  0.46411412  0.46022241     0.77600
C67         C  0.45865706  0.42729181  0.54030844     0.76600
C68         C  0.45646623  0.53813444  0.53631771     0.76900
C69         C  0.53373598  0.57489665  0.46162480     0.78100
C70         C  0.57008030  0.54211893  0.54181262     0.77100
Zn71       Zn  0.62464867  0.81275223  0.84943025     1.49700
Zn72       Zn  0.66610033  0.83547763  0.79926123     1.49400
Zn73       Zn  0.69102764  0.88059599  0.84668415     1.49100
Zn74       Zn  0.69036885  0.81173538  0.84514476     1.49500
O75         O  0.66813662  0.83522033  0.83512721    -1.84200
O76         O  0.59188221  0.79582066  0.82248053    -0.74800
O77         O  0.68724345  0.88122688  0.78601372    -0.74600
O78         O  0.66140883  0.89024211  0.86727793    -0.74100
O79         O  0.61968664  0.81155878  0.78767354    -0.74800
O80         O  0.61585520  0.84294332  0.86999212    -0.74400
O81         O  0.70785835  0.91325454  0.81849893    -0.75000
O82         O  0.72835487  0.84093594  0.86665908    -0.74400
O83         O  0.68980914  0.81433410  0.78416533    -0.75100
O84         O  0.72911861  0.88809377  0.86744404    -0.74500
O85         O  0.70783146  0.79874281  0.81578806    -0.75000
O86         O  0.66069016  0.77090261  0.86442122    -0.74900
O87         O  0.61612248  0.77357429  0.86972929    -0.74700
C88         C  0.59310360  0.79708920  0.79925286     0.77100
C89         C  0.70345330  0.90951738  0.79540836     0.77600
C90         C  0.63253078  0.87312498  0.87504365     0.76600
C91         C  0.74105780  0.87043886  0.87364887     0.76900
C92         C  0.70548827  0.80135132  0.79274778     0.78100
C93         C  0.63234550  0.75933173  0.87322755     0.77100
C94         C  0.79244917  0.70307302  0.67479806     0.80200
N95         N  0.77029598  0.68758874  0.65694075    -0.78100
C96         C  0.77282303  0.66728494  0.64083833     0.82600
N97         N  0.79868968  0.66259911  0.64247688    -0.78100
C98         C  0.82176086  0.67849105  0.66012559     0.82700
N99         N  0.81820718  0.69833337  0.67649731    -0.79800
C100        C  0.75986140  0.12231417  0.65364019     0.80200
N101        N  0.78857872  0.15071285  0.65393591    -0.78100
C102        C  0.81246061  0.15490394  0.66985421     0.82600
N103        N  0.80749384  0.13027725  0.68531794    -0.78100
C104        C  0.77906460  0.10154475  0.68461109     0.82700
N105        N  0.75560045  0.09810153  0.66888081    -0.79800
C106        C  0.56619230  0.54597491  0.01332070     0.80200
N107        N  0.57117793  0.56733759  0.99522264    -0.78100
C108        C  0.54722172  0.56309205  0.97974812     0.82600
N109        N  0.51732123  0.53641629  0.98217391    -0.78100
C110        C  0.51182746  0.51418572  0.00005195     0.82700
N111        N  0.53634228  0.51924412  0.01569514    -0.79800
Zn112      Zn  0.99844701  0.49983275  0.53427250     1.49700
Zn113      Zn  0.97303864  0.45313108  0.48738180     1.49400
Zn114      Zn  0.97406545  0.52098625  0.48710404     1.49100
Zn115      Zn  0.04046689  0.51986271  0.48443142     1.49500
O116        O  0.99657012  0.49847456  0.49836633    -1.84200
O117        O  0.97622477  0.45428775  0.54779578    -0.74800
O118        O  0.93611379  0.44517191  0.46508862    -0.74600
O119        O  0.95659049  0.53570906  0.51532779    -0.74100
O120        O  0.95495260  0.42139575  0.51574945    -0.74800
O121        O  0.97534868  0.52271914  0.54795995    -0.74400
O122        O  0.93689063  0.49223568  0.46462498    -0.75000
O123        O  0.04932666  0.55832480  0.46292035    -0.74400
O124        O  0.00277642  0.44250365  0.46863984    -0.75100
O125        O  0.00457770  0.56075525  0.46819861    -0.74500
O126        O  0.04999856  0.48814209  0.46597707    -0.75000
O127        O  0.07244336  0.53908153  0.51172489    -0.74900
O128        O  0.04496423  0.52382040  0.54662487    -0.74700
C129        C  0.95949937  0.42581198  0.53875999     0.77100
C130        C  0.92456478  0.46272744  0.45779822     0.77600
C131        C  0.95968813  0.53524957  0.53847950     0.76600
C132        C  0.03291377  0.57240075  0.45947103     0.76900
C133        C  0.03203650  0.45789288  0.46149442     0.78100
C134        C  0.07148934  0.53888488  0.53498031     0.77100
Zn135      Zn  0.85029327  0.70483247  0.18158290     1.49700
Zn136      Zn  0.85289939  0.63913659  0.17820477     1.49400
Zn137      Zn  0.78415089  0.63719853  0.17823013     1.49100
Zn138      Zn  0.83012917  0.66229278  0.13147418     1.49500
O139        O  0.82934140  0.66086087  0.16734833    -1.84200
O140        O  0.88990711  0.71488772  0.20206697    -0.74800
O141        O  0.82411999  0.60059353  0.19880181    -0.74600
O142        O  0.77329246  0.66603246  0.19882751    -0.74100
O143        O  0.89144062  0.66912632  0.19916586    -0.74800
O144        O  0.81962727  0.71243528  0.20245575    -0.74400
O145        O  0.77708516  0.59946897  0.19897656    -0.75000
O146        O  0.78458050  0.63950476  0.11757630    -0.74400
O147        O  0.86822452  0.62265831  0.14970130    -0.75100
O148        O  0.75224658  0.61940324  0.14965454    -0.74500
O149        O  0.85270890  0.63951204  0.11736133    -0.75000
O150        O  0.85352461  0.70886668  0.11972992    -0.74900
O151        O  0.86476990  0.73718031  0.15453107    -0.74700
C152        C  0.90304701  0.69802558  0.20729660     0.77100
C153        C  0.79476480  0.58773471  0.20544652     0.77600
C154        C  0.78963472  0.69494378  0.20716090     0.76600
C155        C  0.75631192  0.62311865  0.12659214     0.76900
C156        C  0.86632863  0.62479146  0.12657561     0.78100
C157        C  0.86513748  0.73571812  0.13130256     0.77100
C158        C  0.67831031  0.77928907  0.31467807     0.80200
N159        N  0.68249373  0.80975802  0.31591238    -0.78100
C160        C  0.66688654  0.81729230  0.33341969     0.82600
N161        N  0.64777090  0.79434527  0.35007556    -0.78100
C162        C  0.64362362  0.76390914  0.34879347     0.82700
N163        N  0.65869214  0.75671899  0.33099269    -0.79800
C164        C  0.11236253  0.76956495  0.35607626     0.80200
N165        N  0.08933573  0.76275679  0.33900777    -0.78100
C166        C  0.09403973  0.78338732  0.32043531     0.82600
N167        N  0.12254041  0.81206430  0.31918896    -0.78100
C168        C  0.14613541  0.81930714  0.33636886     0.82700
N169        N  0.14097302  0.79776667  0.35464910    -0.79800
Zn170      Zn  0.48123436  0.02997980  0.48172827     1.49700
Zn171      Zn  0.55002299  0.03270449  0.48335455     1.49400
Zn172      Zn  0.50205650  0.00528563  0.52879685     1.49100
Zn173      Zn  0.48373229  0.96442351  0.47830962     1.49500
O174        O  0.50436670  0.00811991  0.49301705    -1.84200
O175        O  0.51028248  0.06893186  0.46120129    -0.74800
O176        O  0.58040832  0.05010523  0.51302986    -0.74600
O177        O  0.47807644  0.02648725  0.54251335    -0.74100
O178        O  0.55774108  0.07099039  0.46256668    -0.74800
O179        O  0.46497332  0.04534492  0.51002246    -0.74400
O180        O  0.54656001  0.02857454  0.54410935    -0.75000
O181        O  0.47018376  0.93119867  0.50486092    -0.74400
O182        O  0.56177529  0.00409975  0.46324779    -0.75100
O183        O  0.47951516  0.95863014  0.53987183    -0.74500
O184        O  0.51519999  0.95826807  0.45760856    -0.75000
O185        O  0.44318277  0.95381452  0.45842288    -0.74900
O186        O  0.44208568  0.99972482  0.46170374    -0.74700
C187        C  0.54002320  0.08241891  0.45540349     0.77100
C188        C  0.57518026  0.04574842  0.53597304     0.77600
C189        C  0.46517682  0.04174441  0.53309100     0.76600
C190        C  0.46916965  0.93209873  0.52809192     0.76900
C191        C  0.54554084  0.97555392  0.45417973     0.78100
C192        C  0.42968510  0.97059226  0.45396694     0.77100
Zn193      Zn  0.16220202  0.32760843  0.86909138     1.49700
Zn194      Zn  0.14064863  0.28615944  0.81861867     1.49400
Zn195      Zn  0.14313143  0.35492968  0.82293597     1.49100
Zn196      Zn  0.20871507  0.35161837  0.82228976     1.49500
O197        O  0.16367790  0.33000558  0.83323357    -1.84200
O198        O  0.13761427  0.28087327  0.88059010    -0.74800
O199        O  0.10004635  0.27851674  0.80049161    -0.74600
O200        O  0.13098804  0.37417368  0.85155531    -0.74100
O201        O  0.12663983  0.25325055  0.84550270    -0.74800
O202        O  0.14123645  0.35184096  0.88332409    -0.74400
O203        O  0.10230678  0.32615841  0.80402391    -0.75000
O204        O  0.21894744  0.39104939  0.80220338    -0.74400
O205        O  0.16930431  0.27703826  0.79594302    -0.75100
O206        O  0.17311323  0.39225563  0.80165004    -0.74500
O207        O  0.21700252  0.32158076  0.80100231    -0.75000
O208        O  0.24004918  0.36698604  0.85105359    -0.74900
O209        O  0.20756478  0.34870326  0.88322391    -0.74700
C210        C  0.12617561  0.25421894  0.86876937     0.77100
C211        C  0.08807365  0.29679421  0.79652095     0.77600
C212        C  0.13093914  0.36979953  0.87453490     0.76600
C213        C  0.20257155  0.40414412  0.79551808     0.76900
C214        C  0.19955229  0.29340352  0.79163519     0.78100
C215        C  0.23587680  0.36375031  0.87412843     0.77100
C216        C  0.30951739  0.21143005  0.68032617     0.80200
N217        N  0.31059919  0.18332569  0.67985936    -0.78100
C218        C  0.32746205  0.17823874  0.66183732     0.82600
N219        N  0.34306430  0.20142912  0.64436630    -0.78100
C220        C  0.34140619  0.22916734  0.64460020     0.82700
N221        N  0.32485348  0.23381078  0.66268433    -0.79800
C222        C  0.87689789  0.23962384  0.65606751     0.80200
N223        N  0.89787692  0.24468023  0.67449479    -0.78100
C224        C  0.89246023  0.22143017  0.69098078     0.82600
N225        N  0.86506939  0.19198773  0.68909757    -0.78100
C226        C  0.84317229  0.18633923  0.67089881     0.82700
N227        N  0.84925435  0.21023102  0.65428973    -0.79800
Zn228      Zn  0.29186328  0.14795224  0.18390442     1.49700
Zn229      Zn  0.35811857  0.14635407  0.18264392     1.49400
Zn230      Zn  0.33437676  0.16676869  0.13461018     1.49100
Zn231      Zn  0.35934256  0.21446902  0.18122469     1.49500
O232        O  0.33593806  0.16890211  0.17054609    -1.84200
O233        O  0.28224865  0.10961894  0.20551299    -0.74800
O234        O  0.37339269  0.12863135  0.15498054    -0.74600
O235        O  0.28800898  0.14237806  0.12223294    -0.74100
O236        O  0.32799395  0.10839600  0.20350506    -0.74800
O237        O  0.25952807  0.12988316  0.15666567    -0.74400
O238        O  0.35667838  0.14307124  0.12196422    -0.75000
O239        O  0.37550996  0.24479430  0.15223895    -0.74400
O240        O  0.39728680  0.17657019  0.20289430    -0.75100
O241        O  0.35702145  0.21201175  0.11992145    -0.74500
O242        O  0.39821712  0.22370664  0.20195117    -0.75000
O243        O  0.33025834  0.22590072  0.20056059    -0.74900
O244        O  0.28332051  0.17987258  0.20248449    -0.74700
C245        C  0.29904251  0.09653814  0.21101201     0.77100
C246        C  0.37086415  0.12927460  0.13179659     0.77600
C247        C  0.26113339  0.12922758  0.13348580     0.76600
C248        C  0.37246624  0.24051150  0.12914309     0.76900
C249        C  0.41039793  0.20649522  0.20876120     0.78100
C250        C  0.30084323  0.21004428  0.20734282     0.77100
C251        C  0.21579208  0.32069959  0.31414839     0.80200
N252        N  0.18504462  0.31475917  0.31705967    -0.78100
C253        C  0.17788675  0.32921839  0.33578253     0.82600
N254        N  0.20163873  0.34910246  0.35191974    -0.78100
C255        C  0.23239621  0.35494477  0.34898115     0.82700
N256        N  0.23892076  0.34073669  0.33009648    -0.79800
C257        C  0.22870838  0.88498408  0.35289028     0.80200
N258        N  0.20015420  0.85654087  0.35311360    -0.78100
C259        C  0.17731964  0.85016913  0.33551135     0.82600
N260        N  0.18355173  0.87231192  0.31740173    -0.78100
C261        C  0.21251173  0.90050723  0.31700254     0.82700
N262        N  0.23446873  0.90651589  0.33488172    -0.79800
C263        C  0.44802735  0.43162942  0.01877343     0.80200
N264        N  0.47624668  0.46043105  0.01807510    -0.78100
C265        C  0.48014670  0.48372559  0.00166480     0.82600
N266        N  0.45533073  0.47797785  0.98607442    -0.78100
C267        C  0.42676599  0.44932853  0.98720815     0.82700
N268        N  0.42374423  0.42650278  0.00338846    -0.79800
Zn269      Zn  0.14595774  0.78431032  0.81736573     1.49700
Zn270      Zn  0.14788599  0.85224131  0.81344036     1.49400
Zn271      Zn  0.16844806  0.83189213  0.86385189     1.49100
Zn272      Zn  0.21446730  0.85245637  0.81725447     1.49500
O273        O  0.16920405  0.83013916  0.82799880    -1.84200
O274        O  0.10522372  0.77377807  0.79811504    -0.74800
O275        O  0.13087923  0.86826673  0.84016556    -0.74600
O276        O  0.14555792  0.78649319  0.87821266    -0.74100
O277        O  0.10863763  0.82170106  0.79341757    -0.74800
O278        O  0.13213922  0.75317097  0.84631266    -0.74400
O279        O  0.14560553  0.85577570  0.87533603    -0.75000
O280        O  0.24638166  0.86855385  0.84591755    -0.74400
O281        O  0.17815447  0.89060186  0.79227711    -0.75100
O282        O  0.21366552  0.85479076  0.87784334    -0.74500
O283        O  0.22454114  0.89090146  0.79565691    -0.75000
O284        O  0.22234652  0.82171548  0.79721544    -0.74900
O285        O  0.17525602  0.77548999  0.79602635    -0.74700
C286        C  0.09394016  0.79114497  0.78976428     0.77100
C287        C  0.13145503  0.86811258  0.86343615     0.77600
C288        C  0.13306340  0.75782704  0.86937144     0.76600
C289        C  0.24205225  0.86771445  0.86898312     0.76900
C290        C  0.20801900  0.90298533  0.78713662     0.78100
C291        C  0.20495722  0.79237247  0.79011240     0.77100
C292        C  0.88054395  0.64959014  0.64901451     0.80200
N293        N  0.85473003  0.65425120  0.64612740    -0.78100
C294        C  0.85037327  0.67410850  0.66201758     0.82600
N295        N  0.87237168  0.68972591  0.68030330    -0.78100
C296        C  0.89792905  0.68498566  0.68319820     0.82700
N297        N  0.90154879  0.66485952  0.66768742    -0.79800
C298        C  0.35461641  0.11964494  0.64593285     0.80200
N299        N  0.34994326  0.14557186  0.64507544    -0.78100
C300        C  0.33037802  0.14860257  0.66177844     0.82600
N301        N  0.31484647  0.12493455  0.67894151    -0.78100
C302        C  0.31948207  0.09888487  0.67966143     0.82700
N303        N  0.33957856  0.09683072  0.66330248    -0.79800
C304        C  0.98272998  0.55015521  0.01564885     0.80200
N305        N  0.00123173  0.57337209  0.99926629    -0.78100
C306        C  0.02146151  0.56969388  0.98398053     0.82600
N307        N  0.02302694  0.54188941  0.98498234    -0.78100
C308        C  0.00480352  0.51829530  0.00155432     0.82700
N309        N  0.98485107  0.52269813  0.01698703    -0.79800
C310        C  0.44539674  0.01231313  0.02075686     0.80200
N311        N  0.47351129  0.01154866  0.02117972    -0.78100
C312        C  0.47876260  0.99355157  0.00420054     0.82600
N313        N  0.45561352  0.97623235  0.98697399    -0.78100
C314        C  0.42727723  0.97643730  0.98689338     0.82700
N315        N  0.42258171  0.99461061  0.00371132    -0.79800
C316        C  0.98463731  0.01401413  0.07355036     0.80200
N317        N  0.01738053  0.02965227  0.07481591    -0.78100
C318        C  0.03336499  0.01273258  0.07607970     0.82600
N319        N  0.01608519  0.97967374  0.07642324    -0.78100
C320        C  0.98326634  0.96376125  0.07521884     0.82700
N321        N  0.96792589  0.98115717  0.07387936    -0.79800
C322        C  0.65219741  0.35853844  0.39715904     0.80200
N323        N  0.68507815  0.37412576  0.39650735    -0.78100
C324        C  0.70077092  0.35703671  0.39419624     0.82600
N325        N  0.68323884  0.32416998  0.39292404    -0.78100
C326        C  0.65051067  0.30814433  0.39364204     0.82700
N327        N  0.63515101  0.32552333  0.39588044    -0.79800
C328        C  0.34469001  0.65566255  0.59306927     0.80200
N329        N  0.36280517  0.68843934  0.59200150    -0.78100
C330        C  0.34912455  0.70735958  0.59184039     0.82600
N331        N  0.31644717  0.69308293  0.59258500    -0.78100
C332        C  0.29772587  0.66016207  0.59390059     0.82700
N333        N  0.31197967  0.64152575  0.59388968    -0.79800
C334        C  0.01593556  0.97690349  0.92845120     0.80200
N335        N  0.98325570  0.96179299  0.92980319    -0.78100
C336        C  0.96781012  0.97913209  0.93138312     0.82600
N337        N  0.98551747  0.01212219  0.93103627    -0.78100
C338        C  0.01828440  0.02765422  0.92953094     0.82700
N339        N  0.03328859  0.00981744  0.92817349    -0.79800
C340        C  0.31904499  0.68008488  0.73196219     0.80200
N341        N  0.35176996  0.69635183  0.73395166    -0.78100
C342        C  0.36821576  0.68002441  0.73590115     0.82600
N343        N  0.35150874  0.64705266  0.73612239    -0.78100
C344        C  0.31881056  0.63037863  0.73415470     0.82700
N345        N  0.30278763  0.64711494  0.73225059    -0.79800
C346        C  0.68478702  0.31553698  0.27014073     0.80200
N347        N  0.70133828  0.34845762  0.27128528    -0.78100
C348        C  0.68561739  0.36547356  0.27302156     0.82600
N349        N  0.65283317  0.34914019  0.27334660    -0.78100
C350        C  0.63574534  0.31620740  0.27227474     0.82700
N351        N  0.65193356  0.29956653  0.27048149    -0.79800
C352        C  0.32021504  0.01226683  0.72804907    -0.17900
C353        C  0.30448561  0.98441554  0.74245609    -0.20000
C354        C  0.27222163  0.97220731  0.74939567     0.20600
C355        C  0.25560485  0.98819424  0.74169124    -0.02900
C356        C  0.27159848  0.01653484  0.72727615    -0.06000
C357        C  0.30399943  0.02848048  0.72041540     0.20900
C358        C  0.25515087  0.03276677  0.71962075     0.19100
C359        C  0.22271665  0.02019903  0.72630359    -0.17500
C360        C  0.20682246  0.99202599  0.74050748    -0.19700
C361        C  0.22306792  0.97589940  0.74838802     0.20600
C362        C  0.20746144  0.94786436  0.76295386    -0.32700
C363        C  0.22405290  0.93205072  0.77107750     0.01200
C364        C  0.25641607  0.94439524  0.76400441    -0.24100
C365        C  0.31952966  0.05613282  0.70570886    -0.28600
C366        C  0.30335309  0.07236922  0.69773577     0.06900
C367        C  0.27126172  0.06085614  0.70508060    -0.27300
H368        H  0.34509855  0.02112856  0.72285818     0.11600
H369        H  0.31757445  0.97240200  0.74816714     0.12800
H370        H  0.20958781  0.03212682  0.72049619     0.11800
H371        H  0.18180244  0.98290019  0.74540390     0.11100
H372        H  0.18251818  0.93860221  0.76817805     0.16500
H373        H  0.26946604  0.93242480  0.76994329     0.12400
H374        H  0.34427640  0.06484299  0.70013552     0.15200
H375        H  0.25850416  0.07292682  0.69869035     0.15000
C376        C  0.99516160  0.69264283  0.76079384    -0.17900
C377        C  0.96713298  0.67784077  0.74641716    -0.20000
C378        C  0.95768625  0.69672936  0.73287449     0.20600
C379        C  0.97604032  0.73089291  0.73442428    -0.02900
C380        C  0.00453223  0.74585411  0.74880887    -0.06000
C381        C  0.01433376  0.72659457  0.76177325     0.20900
C382        C  0.02359577  0.77999989  0.74971675     0.19100
C383        C  0.01358709  0.79887094  0.73669459    -0.17500
C384        C  0.98532821  0.78405306  0.72246198    -0.19700
C385        C  0.96653993  0.75007249  0.72095903     0.20600
C386        C  0.93922897  0.73490671  0.70550347    -0.32700
C387        C  0.92199885  0.70092422  0.70295873     0.01200
C388        C  0.93097392  0.68204184  0.71705682    -0.24100
C389        C  0.04340050  0.74153401  0.77513126    -0.28600
C390        C  0.06296588  0.77557059  0.77579451     0.06900
C391        C  0.05257626  0.79462817  0.76326878    -0.27300
H392        H  0.00218293  0.67749728  0.77078433     0.11600
H393        H  0.95314994  0.65157213  0.74553645     0.12800
H394        H  0.02787584  0.82513462  0.73723806     0.11800
H395        H  0.97848004  0.79919314  0.71227747     0.11100
H396        H  0.93258775  0.74949794  0.69437370     0.16500
H397        H  0.91771289  0.65582816  0.71502820     0.12400
H398        H  0.05085665  0.72658204  0.78492302     0.15200
H399        H  0.06728175  0.82087332  0.76373533     0.15000
C400        C  0.28519585  0.89485146  0.95324323    -0.17900
C401        C  0.31104518  0.90978084  0.96968753    -0.20000
C402        C  0.34297098  0.92511330  0.96123214     0.20600
C403        C  0.34900410  0.92495617  0.93599635    -0.02900
C404        C  0.32281100  0.91013208  0.91931998    -0.06000
C405        C  0.29081654  0.89519059  0.92804121     0.20900
C406        C  0.32861046  0.91068226  0.89397189     0.19100
C407        C  0.36065136  0.92559802  0.88562263    -0.17500
C408        C  0.38663926  0.94009341  0.90217893    -0.19700
C409        C  0.38113357  0.94011375  0.92741890     0.20600
C410        C  0.40702776  0.95563415  0.94419098    -0.32700
C411        C  0.40096446  0.95683982  0.96925660     0.01200
C412        C  0.36889790  0.94120950  0.97757444    -0.24100
C413        C  0.26490957  0.88119091  0.91146632    -0.28600
C414        C  0.27023098  0.88199503  0.88608568     0.06900
C415        C  0.30229103  0.89664210  0.87748647    -0.27300
H416        H  0.26075976  0.88338137  0.96022883     0.11600
H417        H  0.30605243  0.90959241  0.98903182     0.12800
H418        H  0.36563471  0.92624235  0.86624421     0.11800
H419        H  0.41107524  0.95162709  0.89519805     0.11100
H420        H  0.43171783  0.96791826  0.93767454     0.16500
H421        H  0.36412868  0.94194168  0.99688839     0.12400
H422        H  0.24046458  0.86994594  0.91843297     0.15200
H423        H  0.30678674  0.89733926  0.85801259     0.15000
C424        C  0.09816637  0.71346320  0.95247435    -0.17900
C425        C  0.08276418  0.68721192  0.96844051    -0.20000
C426        C  0.07097593  0.65535190  0.95995540     0.20600
C427        C  0.07524138  0.64985559  0.93523318    -0.02900
C428        C  0.09050804  0.67643196  0.91899484    -0.06000
C429        C  0.10184229  0.70832312  0.92768746     0.20900
C430        C  0.09390602  0.67106562  0.89404965     0.19100
C431        C  0.08265583  0.63915390  0.88573844    -0.17500
C432        C  0.06778456  0.61282880  0.90188122    -0.19700
C433        C  0.06367007  0.61782289  0.92665533     0.20600
C434        C  0.04749418  0.59144221  0.94285972    -0.32700
C435        C  0.04206728  0.59683272  0.96730036     0.01200
C436        C  0.05431744  0.62890813  0.97568067    -0.24100
C437        C  0.11617799  0.73454270  0.91144229    -0.28600
C438        C  0.11907666  0.72957074  0.88637966     0.06900
C439        C  0.10805681  0.69763225  0.87786962    -0.27300
H440        H  0.10680376  0.73779807  0.95945941     0.11600
H441        H  0.07977867  0.69182017  0.98741096     0.12800
H442        H  0.08512311  0.63450618  0.86667476     0.11800
H443        H  0.05909430  0.58848989  0.89489455     0.11100
H444        H  0.03791319  0.56679065  0.93623346     0.16500
H445        H  0.05044401  0.63327174  0.99452546     0.12400
H446        H  0.12452598  0.75888015  0.91832561     0.15200
H447        H  0.11029220  0.69340301  0.85866404     0.15000
C448        C  0.30211883  0.79798888  0.75414312    -0.17900
C449        C  0.31825383  0.78217966  0.74569089    -0.20000
C450        C  0.30135061  0.74846955  0.74182635     0.20600
C451        C  0.26763113  0.73072838  0.74544802    -0.02900
C452        C  0.25136392  0.74666135  0.75401843    -0.06000
C453        C  0.26884571  0.78031863  0.75888550     0.20900
C454        C  0.21790897  0.72864935  0.75878238     0.19100
C455        C  0.20077489  0.69517427  0.75391074    -0.17500
C456        C  0.21689388  0.67938713  0.74539508    -0.19700
C457        C  0.25039668  0.69683188  0.74164007     0.20600
C458        C  0.26715952  0.68071492  0.73540404    -0.32700
C459        C  0.30105921  0.69792322  0.73340621     0.01200
C460        C  0.31780892  0.73199295  0.73565748    -0.24100
C461        C  0.25307172  0.79543901  0.76945092    -0.28600
C462        C  0.22010700  0.77728735  0.77555126     0.06900
C463        C  0.20246392  0.74411037  0.76937023    -0.27300
H464        H  0.31584146  0.82389341  0.75764342     0.11600
H465        H  0.34411855  0.79618186  0.74285636     0.12800
H466        H  0.17505120  0.68103472  0.75733437     0.11800
H467        H  0.20329926  0.65336073  0.74243563     0.11100
H468        H  0.25388729  0.65450931  0.73346969     0.16500
H469        H  0.34387441  0.74559780  0.73389197     0.12400
H470        H  0.26685729  0.82110307  0.77387584     0.15200
H471        H  0.17700776  0.72995016  0.77377785     0.15000
C472        C  0.11239041  0.96375514  0.92872744    -0.17900
C473        C  0.12856689  0.94811285  0.91983846    -0.20000
C474        C  0.11290434  0.92144772  0.90385022     0.20600
C475        C  0.08031794  0.90992187  0.89729366    -0.02900
C476        C  0.06382671  0.92523251  0.90667657    -0.06000
C477        C  0.08012957  0.95271366  0.92206255     0.20900
C478        C  0.03128691  0.91358743  0.90004872     0.19100
C479        C  0.01547543  0.88678584  0.88425715    -0.17500
C480        C  0.03199095  0.87206553  0.87456445    -0.19700
C481        C  0.06442338  0.88363940  0.88079428     0.20600
C482        C  0.08144755  0.86988702  0.87030799    -0.32700
C483        C  0.11387339  0.88142558  0.87651081     0.01200
C484        C  0.12939484  0.90665832  0.89370803    -0.24100
C485        C  0.06412836  0.96914006  0.92987588    -0.28600
C486        C  0.03184479  0.95785544  0.92296309     0.06900
C487        C  0.01538847  0.92958641  0.90861246    -0.27300
H488        H  0.12522863  0.98471232  0.94061471     0.11600
H489        H  0.15354334  0.95729560  0.92506773     0.12800
H490        H  0.99051460  0.87763561  0.87898501     0.11800
H491        H  0.01948573  0.85182157  0.86199096     0.11100
H492        H  0.06958326  0.85030007  0.85707737     0.16500
H493        H  0.15455554  0.91564015  0.89828020     0.12400
H494        H  0.07686175  0.99092230  0.94098442     0.15200
H495        H  0.99063703  0.92099707  0.90296453     0.15000
C496        C  0.16707993  0.13145995  0.10029634    -0.17900
C497        C  0.13492677  0.11499736  0.09239832    -0.20000
C498        C  0.11854793  0.08119498  0.08906054     0.20600
C499        C  0.13488791  0.06383909  0.09317815    -0.02900
C500        C  0.16740137  0.08047108  0.10108885    -0.06000
C501        C  0.18339651  0.11440136  0.10493157     0.20900
C502        C  0.18353230  0.06303477  0.10595651     0.19100
C503        C  0.16724446  0.02927887  0.10227627    -0.17500
C504        C  0.13500412  0.01280595  0.09440146    -0.19700
C505        C  0.11848756  0.02979727  0.09009852     0.20600
C506        C  0.08563622  0.01327254  0.08350556    -0.32700
C507        C  0.06888438  0.03033226  0.08010682     0.01200
C508        C  0.08583743  0.06440878  0.08240618    -0.24100
C509        C  0.21500920  0.13049518  0.11419853    -0.28600
C510        C  0.23071844  0.11311357  0.11971325     0.06900
C511        C  0.21521674  0.07954659  0.11526306    -0.27300
H512        H  0.17902961  0.15748627  0.10316214     0.11600
H513        H  0.12268462  0.12865148  0.08930302     0.12800
H514        H  0.17927242  0.01553565  0.10588851     0.11800
H515        H  0.12281418  0.98668024  0.09208022     0.11100
H516        H  0.07294472  0.98705147  0.08174629     0.16500
H517        H  0.07336931  0.07794344  0.07980378     0.12400
H518        H  0.22698452  0.15632995  0.11807950     0.15200
H519        H  0.22735981  0.06619957  0.11997141     0.15000
C520        C  0.43918905  0.05103052  0.10414427    -0.17900
C521        C  0.42782879  0.06661939  0.11971401    -0.20000
C522        C  0.41217238  0.08253988  0.11013776     0.20600
C523        C  0.40817336  0.08289507  0.08457650    -0.02900
C524        C  0.41945173  0.06702771  0.06889128    -0.06000
C525        C  0.43501065  0.05092388  0.07868217     0.20900
C526        C  0.41460371  0.06681490  0.04341719     0.19100
C527        C  0.39929878  0.08295137  0.03375562    -0.17500
C528        C  0.38841898  0.09885270  0.04922828    -0.19700
C529        C  0.39250903  0.09874951  0.07463769     0.20600
C530        C  0.38085845  0.11398051  0.09020977    -0.32700
C531        C  0.38432680  0.11357859  0.11576180     0.01200
C532        C  0.40019806  0.09785489  0.12559691    -0.24100
C533        C  0.44529005  0.03437297  0.06286258    -0.28600
C534        C  0.43934898  0.03317637  0.03753921     0.06900
C535        C  0.42440772  0.04982594  0.02802793    -0.27300
H536        H  0.45096048  0.03876223  0.11205327     0.11600
H537        H  0.43115239  0.06607430  0.13928534     0.12800
H538        H  0.39548371  0.08303747  0.01421238     0.11800
H539        H  0.37648698  0.11096782  0.04132023     0.11100
H540        H  0.36875179  0.12594457  0.08232500     0.16500
H541        H  0.40307772  0.09735864  0.14523651     0.12400
H542        H  0.45650184  0.02128273  0.07028908     0.15200
H543        H  0.41991249  0.04907533  0.00850807     0.15000
C544        C  0.43122051  0.35989654  0.11687457    -0.17900
C545        C  0.44281153  0.38687370  0.10142736    -0.20000
C546        C  0.43891616  0.38272541  0.07596083     0.20600
C547        C  0.42355273  0.35096572  0.06600454    -0.02900
C548        C  0.41199298  0.32375888  0.08158609    -0.06000
C549        C  0.41559044  0.32824260  0.10715495     0.20900
C550        C  0.39627016  0.29207545  0.07157672     0.19100
C551        C  0.39263794  0.28786332  0.04611875    -0.17500
C552        C  0.40380225  0.31474159  0.03072051    -0.19700
C553        C  0.41896291  0.34630798  0.04050344     0.20600
C554        C  0.42865588  0.37320203  0.02526781    -0.32700
C555        C  0.44322570  0.40483065  0.03502576     0.01200
C556        C  0.44908171  0.40959386  0.06032865    -0.24100
C557        C  0.40306393  0.30101669  0.12254987    -0.28600
C558        C  0.38687575  0.26925917  0.11274351     0.06900
C559        C  0.38395291  0.26512601  0.08716740    -0.27300
H560        H  0.43421902  0.36379621  0.13647447     0.11600
H561        H  0.45443556  0.41098898  0.10943774     0.12800
H562        H  0.38072344  0.26373235  0.03812219     0.11800
H563        H  0.40020690  0.31081340  0.01115087     0.11100
H564        H  0.42410040  0.36950984  0.00574044     0.16500
H565        H  0.45989329  0.43392238  0.06791039     0.12400
H566        H  0.40558326  0.30460930  0.14219959     0.15200
H567        H  0.37167173  0.24088832  0.07933872     0.15000
C568        C  0.31261064  0.01537679  0.25690219    -0.17900
C569        C  0.30007064  0.98698465  0.27060258    -0.20000
C570        C  0.26697639  0.96923926  0.27584089     0.20600
C571        C  0.24607692  0.97972711  0.26690358    -0.02900
C572        C  0.25879947  0.00852094  0.25304415    -0.06000
C573        C  0.29224165  0.02642870  0.24820076     0.20900
C574        C  0.23823658  0.01961058  0.24434891     0.19100
C575        C  0.20498635  0.00141179  0.24933814    -0.17500
C576        C  0.19235826  0.97285590  0.26319667    -0.19700
C577        C  0.21271847  0.96189525  0.27230099     0.20600
C578        C  0.20073304  0.93424591  0.28742844    -0.32700
C579        C  0.22200620  0.92481085  0.29728244     0.01200
C580        C  0.25476839  0.94185198  0.29066689    -0.24100
C581        C  0.30491680  0.05516447  0.23479496    -0.28600
C582        C  0.28480884  0.06660106  0.22601096     0.06900
C583        C  0.25138012  0.04868223  0.23090571    -0.27300
H584        H  0.33831752  0.02884754  0.25327696     0.11600
H585        H  0.31635698  0.97914416  0.27741198     0.12800
H586        H  0.18876798  0.00943357  0.24271840     0.11800
H587        H  0.16671663  0.95957387  0.26705792     0.11100
H588        H  0.17548222  0.92129293  0.29257456     0.16500
H589        H  0.27121943  0.93446690  0.29795810     0.12400
H590        H  0.33064527  0.06867089  0.23120322     0.15200
H591        H  0.23559355  0.05713810  0.22407476     0.15000
C592        C  0.30165190  0.32423712  0.26300001    -0.17900
C593        C  0.31392237  0.30859340  0.24861645    -0.20000
C594        C  0.29396412  0.27617903  0.24133878     0.20600
C595        C  0.26107763  0.25961559  0.24807943    -0.02900
C596        C  0.24861448  0.27549302  0.26253631    -0.06000
C597        C  0.26919744  0.30775726  0.27028800     0.20900
C598        C  0.21588358  0.25882529  0.26981803     0.19100
C599        C  0.19579403  0.22663088  0.26199114    -0.17500
C600        C  0.20816266  0.21087805  0.24766269    -0.19700
C601        C  0.24086360  0.22700714  0.24087671     0.20600
C602        C  0.25384282  0.21098098  0.22740579    -0.32700
C603        C  0.28683060  0.22714977  0.22103820     0.01200
C604        C  0.30653435  0.25993630  0.22783216    -0.24100
C605        C  0.25736283  0.32266936  0.28593517    -0.28600
C606        C  0.22522725  0.30588340  0.29424736     0.06900
C607        C  0.20425145  0.27425722  0.28550851    -0.27300
H608        H  0.31771006  0.34908424  0.26878159     0.11600
H609        H  0.33918131  0.32169953  0.24351514     0.12800
H610        H  0.17062155  0.21342406  0.26730568     0.11800
H611        H  0.19222669  0.18588033  0.24218416     0.11100
H612        H  0.23829918  0.18583053  0.22209203     0.16500
H613        H  0.33188203  0.27278332  0.22294047     0.12400
H614        H  0.27362014  0.34719485  0.29235151     0.15200
H615        H  0.17952829  0.26112482  0.29192234     0.15000
C616        C  0.50030705  0.20000352  0.24808503    -0.17900
C617        C  0.53191662  0.21537471  0.25726636    -0.20000
C618        C  0.54955753  0.24926820  0.25998044     0.20600
C619        C  0.53478677  0.26773800  0.25421348    -0.02900
C620        C  0.50292290  0.25223713  0.24487574    -0.06000
C621        C  0.48582091  0.21826868  0.24142214     0.20900
C622        C  0.48864413  0.27086598  0.23818996     0.19100
C623        C  0.50591221  0.30465350  0.24163670    -0.17500
C624        C  0.53744006  0.31999395  0.25093003    -0.19700
C625        C  0.55224517  0.30181011  0.25689100     0.20600
C626        C  0.58462907  0.31725777  0.26444879    -0.32700
C627        C  0.60015823  0.29921235  0.26886608     0.01200
C628        C  0.58209181  0.26509652  0.26734257    -0.24100
C629        C  0.45501514  0.20330095  0.23058681    -0.28600
C630        C  0.44111156  0.22185833  0.22293049     0.06900
C631        C  0.45782117  0.25556317  0.22739718    -0.27300
H632        H  0.48744675  0.17387454  0.24567451     0.11600
H633        H  0.54282154  0.20080483  0.26172425     0.12800
H634        H  0.49527019  0.31930498  0.23667391     0.11800
H635        H  0.55051323  0.34618462  0.25292573     0.11100
H636        H  0.59813569  0.34353203  0.26563629     0.16500
H637        H  0.59365598  0.25088696  0.27089527     0.12400
H638        H  0.44233773  0.17730239  0.22740504     0.15200
H639        H  0.44736610  0.27013136  0.22169382     0.15000
C640        C  0.12752035  0.15378749  0.88484875    -0.17900
C641        C  0.11268244  0.12213422  0.89382418    -0.20000
C642        C  0.08336050  0.10925122  0.90647930     0.20600
C643        C  0.06925547  0.12870282  0.91077906    -0.02900
C644        C  0.08451810  0.16087920  0.90205016    -0.06000
C645        C  0.11344024  0.17315504  0.88861030     0.20900
C646        C  0.07033984  0.18037672  0.90605992     0.19100
C647        C  0.04120728  0.16754344  0.91902755    -0.17500
C648        C  0.02580750  0.13542640  0.92735123    -0.19700
C649        C  0.03944171  0.11569068  0.92308096     0.20600
C650        C  0.02335784  0.08292187  0.93015649    -0.32700
C651        C  0.03693253  0.06316178  0.92531078     0.01200
C652        C  0.06738659  0.07687120  0.91408462    -0.24100
C653        C  0.12726265  0.20420736  0.87849204    -0.28600
C654        C  0.11300329  0.22343541  0.88201355     0.06900
C655        C  0.08502948  0.21189414  0.89629405    -0.27300
H656        H  0.14979072  0.16296897  0.87465537     0.11600
H657        H  0.12378520  0.10746975  0.89038810     0.12800
H658        H  0.02997346  0.18212339  0.92228035     0.11800
H659        H  0.00299228  0.12588135  0.93684098     0.11100
H660        H  0.99995398  0.07261904  0.93888047     0.16500
H661        H  0.07803522  0.06191883  0.91008770     0.12400
H662        H  0.14888321  0.21331942  0.86745328     0.15200
H663        H  0.07396668  0.22679352  0.89876406     0.15000
C664        C  0.00577823  0.31536029  0.75704226    -0.17900
C665        C  0.97793547  0.30453235  0.74278355    -0.20000
C666        C  0.96049399  0.27210911  0.73485907     0.20600
C667        C  0.97068970  0.25012727  0.74178734    -0.02900
C668        C  0.99901177  0.26115584  0.75606272    -0.06000
C669        C  0.01671954  0.29398157  0.76351100     0.20900
C670        C  0.00997350  0.23956396  0.76240474     0.19100
C671        C  0.99200542  0.20693542  0.75489924    -0.17500
C672        C  0.96384991  0.19596691  0.74079697    -0.19700
C673        C  0.95313019  0.21741816  0.73388191     0.20600
C674        C  0.92594998  0.20715161  0.71850131    -0.32700
C675        C  0.91675378  0.22948828  0.71061547     0.01200
C676        C  0.93370586  0.26164991  0.71940435    -0.24100
C677        C  0.04537804  0.30508900  0.77692743    -0.28600
C678        C  0.05702516  0.28401938  0.78292117     0.06900
C679        C  0.03893132  0.25112041  0.77577757    -0.27300
H680        H  0.01905055  0.34060970  0.76268851     0.11600
H681        H  0.97031028  0.32165737  0.73763534     0.12800
H682        H  0.99995505  0.18995455  0.75967959     0.11800
H683        H  0.95074787  0.17079605  0.73495625     0.11100
H684        H  0.91313638  0.18242336  0.71162381     0.16500
H685        H  0.92658447  0.27893550  0.71353460     0.12400
H686        H  0.05889874  0.33041899  0.78236760     0.15200
H687        H  0.04747076  0.23456743  0.78044009     0.15000
C688        C  0.19776374  0.20231167  0.74440039    -0.17900
C689        C  0.21357891  0.19022477  0.72979520    -0.20000
C690        C  0.24607087  0.21024840  0.72317007     0.20600
C691        C  0.26273810  0.24275334  0.73162463    -0.02900
C692        C  0.24680209  0.25491935  0.74636494    -0.06000
C693        C  0.21409835  0.23468401  0.75273623     0.20900
C694        C  0.26360032  0.28748529  0.75451234     0.19100
C695        C  0.29603451  0.30757610  0.74798855    -0.17500
C696        C  0.31169352  0.29564869  0.73332719    -0.19700
C697        C  0.29522541  0.26339023  0.72497662     0.20600
C698        C  0.31049291  0.25182959  0.70945351    -0.32700
C699        C  0.29397836  0.21988086  0.70025807     0.01200
C700        C  0.26193310  0.19883022  0.70765218    -0.24100
C701        C  0.19843751  0.24723421  0.76728452    -0.28600
C702        C  0.21521236  0.27976098  0.77564022     0.06900
C703        C  0.24780316  0.29956677  0.76902185    -0.27300
H704        H  0.17266154  0.18633532  0.74909042     0.11600
H705        H  0.20027197  0.16526273  0.72348560     0.12800
H706        H  0.30926705  0.33263310  0.75410485     0.11800
H707        H  0.33665585  0.31177847  0.72832973     0.11100
H708        H  0.33517403  0.26815083  0.70380496     0.16500
H709        H  0.24893227  0.17433296  0.70033994     0.12400
H710        H  0.17335881  0.23163989  0.77224977     0.15200
H711        H  0.26106778  0.32462171  0.77516536     0.15000
C712        C  0.35245094  0.43983461  0.89087142    -0.17900
C713        C  0.37901997  0.45290489  0.90691717    -0.20000
C714        C  0.37553604  0.44195732  0.93115697     0.20600
C715        C  0.34470426  0.41790166  0.93931360    -0.02900
C716        C  0.31788203  0.40481579  0.92316543    -0.06000
C717        C  0.32181480  0.41561605  0.89875147     0.20900
C718        C  0.28721589  0.38064984  0.93141588     0.19100
C719        C  0.28355358  0.36984366  0.95566167    -0.17500
C720        C  0.31008163  0.38259194  0.97155724    -0.19700
C721        C  0.34071977  0.40644801  0.96350758     0.20600
C722        C  0.36755009  0.41833722  0.97910951    -0.32700
C723        C  0.39866911  0.44146803  0.97103572     0.01200
C724        C  0.40237580  0.45385316  0.94716308    -0.24100
C725        C  0.29508988  0.40192749  0.88268770    -0.28600
C726        C  0.26436275  0.37786126  0.89083810     0.06900
C727        C  0.26073855  0.36754318  0.91530168    -0.27300
H728        H  0.35592538  0.44854998  0.87221844     0.11600
H729        H  0.40240225  0.47132789  0.90026311     0.12800
H730        H  0.26019538  0.35131885  0.96229017     0.11800
H731        H  0.30668543  0.37356009  0.99011863     0.11100
H732        H  0.36426639  0.40886199  0.99754226     0.16500
H733        H  0.42621477  0.47152336  0.94072424     0.12400
H734        H  0.29814536  0.41025145  0.86393114     0.15200
H735        H  0.23728916  0.34898967  0.92179151     0.15000
C736        C  0.31739216  0.52802307  0.75211185    -0.17900
C737        C  0.30102972  0.49616036  0.76081591    -0.20000
C738        C  0.26770080  0.48056143  0.76529300     0.20600
C739        C  0.25047864  0.49679852  0.76014062    -0.02900
C740        C  0.26697919  0.52892416  0.75133884    -0.06000
C741        C  0.30068067  0.54478017  0.74772939     0.20900
C742        C  0.24993695  0.54554966  0.74703752     0.19100
C743        C  0.21644902  0.52962216  0.75080730    -0.17500
C744        C  0.20010190  0.49779658  0.75954099    -0.19700
C745        C  0.21698696  0.48140376  0.76463838     0.20600
C746        C  0.20118306  0.45039981  0.77503927    -0.32700
C747        C  0.21845561  0.43465318  0.78131509     0.01200
C748        C  0.25155446  0.44953791  0.77571485    -0.24100
C749        C  0.31726727  0.57748300  0.74075671    -0.28600
C750        C  0.30066405  0.59470210  0.73757378     0.06900
C751        C  0.26682562  0.57819819  0.74000405    -0.27300
H752        H  0.34325475  0.53981214  0.74933133     0.11600
H753        H  0.31458224  0.48397947  0.76457490     0.12800
H754        H  0.20300670  0.54203393  0.74752230     0.11800
H755        H  0.17435726  0.48625662  0.76282215     0.11100
H756        H  0.17564150  0.43910618  0.77911717     0.16500
H757        H  0.26507886  0.43756703  0.78033213     0.12400
H758        H  0.34329371  0.58981469  0.73876298     0.15200
H759        H  0.25368399  0.59108091  0.73750241     0.15000
C760        C  0.65123483  0.20671804  0.40946753    -0.17900
C761        C  0.63581653  0.17508078  0.41857507    -0.20000
C762        C  0.60263408  0.15891753  0.42365031     0.20600
C763        C  0.58453988  0.17427672  0.41859406    -0.02900
C764        C  0.60013820  0.20627981  0.40947951    -0.06000
C765        C  0.63373015  0.22272136  0.40535376     0.20900
C766        C  0.58239537  0.22228739  0.40554801     0.19100
C767        C  0.54894215  0.20557911  0.40963442    -0.17500
C768        C  0.53344353  0.17378754  0.41855941    -0.19700
C769        C  0.55115628  0.15821186  0.42361884     0.20600
C770        C  0.53637225  0.12745305  0.43454876    -0.32700
C771        C  0.55462981  0.11270682  0.44083426     0.01200
C772        C  0.58755864  0.12823539  0.43461471    -0.24100
C773        C  0.64954997  0.25537125  0.39836915    -0.28600
C774        C  0.63245929  0.27224189  0.39602950     0.06900
C775        C  0.59864435  0.25514322  0.39877011    -0.27300
H776        H  0.67704282  0.21900300  0.40629517     0.11600
H777        H  0.65001377  0.16355421  0.42222674     0.12800
H778        H  0.53489539  0.21739890  0.40654640     0.11800
H779        H  0.50774160  0.16170992  0.42214660     0.11100
H780        H  0.51092397  0.11563017  0.43905397     0.16500
H781        H  0.60182000  0.11701532  0.43912369     0.12400
H782        H  0.67554462  0.26805687  0.39610462     0.15200
H783        H  0.58513189  0.26772567  0.39678107     0.15000
C784        C  0.43357845  0.08451719  0.63145091    -0.17900
C785        C  0.44809590  0.07236615  0.61576802    -0.20000
C786        C  0.44232011  0.07055587  0.59047996     0.20600
C787        C  0.42218091  0.08164401  0.58081614    -0.02900
C788        C  0.40764184  0.09410545  0.59665600    -0.06000
C789        C  0.41311810  0.09514067  0.62209643     0.20900
C790        C  0.38701139  0.10473085  0.58712829     0.19100
C791        C  0.38140535  0.10301177  0.56179091    -0.17500
C792        C  0.39584222  0.09066376  0.54608235    -0.19700
C793        C  0.41617531  0.07981696  0.55540892     0.20600
C794        C  0.43039550  0.06694975  0.53984009    -0.32700
C795        C  0.45034368  0.05563343  0.54939061     0.01200
C796        C  0.45615354  0.05759920  0.57475849    -0.24100
C797        C  0.39711720  0.10564111  0.63784527    -0.28600
C798        C  0.37582272  0.11534994  0.62861658     0.06900
C799        C  0.37147626  0.11570767  0.60320482    -0.27300
H800        H  0.43803045  0.08522019  0.65095281     0.11600
H801        H  0.46357843  0.06404764  0.62345741     0.12800
H802        H  0.36554993  0.11088392  0.55413735     0.11800
H803        H  0.39091198  0.08938801  0.52662819     0.11100
H804        H  0.42565147  0.06544127  0.52033679     0.16500
H805        H  0.47157409  0.04911539  0.58233023     0.12400
H806        H  0.40030538  0.10518832  0.65746981     0.15200
H807        H  0.35460054  0.12262960  0.59611012     0.15000
C808        C  0.30984296  0.86655846  0.39531982    -0.17900
C809        C  0.33891168  0.87917690  0.40852801    -0.20000
C810        C  0.35410599  0.91104395  0.41784906     0.20600
C811        C  0.33958086  0.93020580  0.41398805    -0.02900
C812        C  0.31030029  0.91750870  0.40064927    -0.06000
C813        C  0.29537173  0.88554892  0.39113895     0.20900
C814        C  0.29640839  0.93713351  0.39633851     0.19100
C815        C  0.31129655  0.96883088  0.40581167    -0.17500
C816        C  0.34006136  0.98126169  0.41915602    -0.19700
C817        C  0.35452349  0.96226958  0.42314648     0.20600
C818        C  0.38379823  0.97498910  0.43599418    -0.32700
C819        C  0.39873962  0.95628998  0.43992361     0.01200
C820        C  0.38359880  0.92418131  0.43080693    -0.24100
C821        C  0.26694333  0.87368641  0.37694094    -0.28600
C822        C  0.25390765  0.89378085  0.37180978     0.06900
C823        C  0.26847875  0.92518426  0.38192405    -0.27300
H824        H  0.29886842  0.84203721  0.38812903     0.11600
H825        H  0.34964028  0.86405363  0.41130362     0.12800
H826        H  0.30087058  0.98415887  0.40266576     0.11800
H827        H  0.35120253  0.00590225  0.42613399     0.11100
H828        H  0.39497057  0.99965758  0.44293895     0.16500
H829        H  0.39472435  0.90944285  0.43375851     0.12400
H830        H  0.25608785  0.84968302  0.36876534     0.15200
H831        H  0.25856149  0.94076540  0.37782698     0.15000
C832        C  0.46167616  0.82676321  0.54277920    -0.17900
C833        C  0.44499010  0.79534090  0.55221864    -0.20000
C834        C  0.41691350  0.78526319  0.56607897     0.20600
C835        C  0.40607096  0.80727514  0.57121707    -0.02900
C836        C  0.42332887  0.83922379  0.56215363    -0.06000
C837        C  0.45079461  0.84870609  0.54737125     0.20900
C838        C  0.41248012  0.86131081  0.56717984     0.19100
C839        C  0.38469887  0.85132370  0.58139342    -0.17500
C840        C  0.36719113  0.81940323  0.58994004    -0.19700
C841        C  0.37743838  0.79707554  0.58471123     0.20600
C842        C  0.35912541  0.76453276  0.59208970    -0.32700
C843        C  0.36953658  0.74236125  0.58656767     0.01200
C844        C  0.39891285  0.75321025  0.57413666    -0.24100
C845        C  0.46624022  0.87959581  0.53680656    -0.28600
C846        C  0.45514866  0.90136368  0.54142507     0.06900
C847        C  0.42893391  0.89257314  0.55714986    -0.27300
H848        H  0.48283019  0.83375996  0.53160770     0.11600
H849        H  0.45359706  0.77866007  0.54817063     0.12800
H850        H  0.37606660  0.86798780  0.58540973     0.11800
H851        H  0.34539385  0.81206403  0.60037964     0.11100
H852        H  0.33661393  0.75635545  0.60177341     0.16500
H853        H  0.40707910  0.73629054  0.56960567     0.12400
H854        H  0.48659444  0.88661897  0.52469033     0.15200
H855        H  0.42033845  0.90944930  0.56046087     0.15000
C856        C  0.86715025  0.83725250  0.11292082    -0.17900
C857        C  0.88380986  0.86933231  0.10483700    -0.20000
C858        C  0.91460016  0.88209019  0.09448155     0.20600
C859        C  0.92841501  0.86216778  0.09151326    -0.02900
C860        C  0.91133782  0.82959029  0.09926721    -0.06000
C861        C  0.88087334  0.81736333  0.11048931     0.20900
C862        C  0.92524011  0.80963833  0.09663692     0.19100
C863        C  0.95585578  0.82235846  0.08594368    -0.17500
C864        C  0.97300354  0.85485273  0.07858519    -0.19700
C865        C  0.95968924  0.87507810  0.08157840     0.20600
C866        C  0.97740499  0.90817254  0.07553323    -0.32700
C867        C  0.96396017  0.92827362  0.07897908     0.01200
C868        C  0.93221803  0.91475839  0.08785808    -0.24100
C869        C  0.86523276  0.78587287  0.11992337    -0.28600
C870        C  0.87931303  0.76629144  0.11785131     0.06900
C871        C  0.90882034  0.77779165  0.10566539    -0.27300
H872        H  0.84374613  0.82814577  0.12141492     0.11600
H873        H  0.87293291  0.88440254  0.10721223     0.12800
H874        H  0.96686417  0.80738033  0.08378977     0.11800
H875        H  0.99689501  0.86429572  0.07088707     0.11100
H876        H  0.00177222  0.91837744  0.06857410     0.16500
H877        H  0.92162144  0.93000485  0.09074950     0.12400
H878        H  0.84250894  0.77681498  0.12951694     0.15200
H879        H  0.91974640  0.76261605  0.10447107     0.15000
C880        C  0.93440998  0.54718956  0.09678617    -0.17900
C881        C  0.91880943  0.55840540  0.11241085    -0.20000
C882        C  0.90665123  0.57784364  0.10340467     0.20600
C883        C  0.90960891  0.58537996  0.07826439    -0.02900
C884        C  0.92556688  0.57428215  0.06253852    -0.06000
C885        C  0.93831140  0.55530935  0.07185351     0.20900
C886        C  0.92950507  0.58294042  0.03761838     0.19100
C887        C  0.91654425  0.60152399  0.02841298    -0.17500
C888        C  0.90048807  0.61219514  0.04389437    -0.19700
C889        C  0.89730115  0.60466158  0.06889225     0.20600
C890        C  0.88263672  0.61670165  0.08470598    -0.32700
C891        C  0.88041395  0.61024397  0.10996659     0.01200
C892        C  0.89216547  0.59038452  0.11911405    -0.24100
C893        C  0.95555665  0.54573420  0.05623493    -0.28600
C894        C  0.96082872  0.55567846  0.03162507     0.06900
C895        C  0.94714987  0.57373069  0.02244609    -0.27300
H896        H  0.94393172  0.53262024  0.10430920     0.11600
H897        H  0.91661494  0.55219704  0.13163291     0.12800
H898        H  0.91923320  0.60821566  0.00927495     0.11800
H899        H  0.89105927  0.62685558  0.03638236     0.11100
H900        H  0.87361723  0.63180319  0.07735028     0.16500
H901        H  0.89033564  0.58493120  0.13847654     0.12400
H902        H  0.96614729  0.53196311  0.06346807     0.15200
H903        H  0.95080923  0.58120304  0.00345085     0.15000
C904        C  0.67599312  0.69381274  0.26258294    -0.17900
C905        C  0.69165401  0.68166050  0.24812736    -0.20000
C906        C  0.72444532  0.70126585  0.24237144     0.20600
C907        C  0.74157060  0.73358812  0.25106042    -0.02900
C908        C  0.72565613  0.74598159  0.26553336    -0.06000
C909        C  0.69280928  0.72583092  0.27144706     0.20900
C910        C  0.74267961  0.77828256  0.27438191     0.19100
C911        C  0.77551289  0.79783728  0.26857599    -0.17500
C912        C  0.79132006  0.78550609  0.25429690    -0.19700
C913        C  0.77459665  0.75339373  0.24547736     0.20600
C914        C  0.79027004  0.74069885  0.23124842    -0.32700
C915        C  0.77330233  0.70842370  0.22245183     0.01200
C916        C  0.74034175  0.68898202  0.22815424    -0.24100
C917        C  0.67747182  0.73771601  0.28660918    -0.28600
C918        C  0.69427619  0.76959236  0.29595358     0.06900
C919        C  0.72674748  0.79006626  0.28935405    -0.27300
H920        H  0.65073772  0.67806544  0.26697731     0.11600
H921        H  0.67814829  0.65681074  0.24158565     0.12800
H922        H  0.78906012  0.82261966  0.27524430     0.11800
H923        H  0.81669735  0.80109100  0.25021021     0.11100
H924        H  0.81564754  0.75599376  0.22699292     0.16500
H925        H  0.72694027  0.66414043  0.22155816     0.12400
H926        H  0.65242087  0.72184289  0.29159021     0.15200
H927        H  0.73992844  0.81450710  0.29676195     0.15000
C928        C  0.00253549  0.69361570  0.27747945    -0.17900
C929        C  0.97566162  0.68155499  0.26201136    -0.20000
C930        C  0.96765188  0.70280940  0.25036203     0.20600
C931        C  0.98690680  0.73659765  0.25432012    -0.02900
C932        C  0.01432015  0.74884670  0.26981175    -0.06000
C933        C  0.02195263  0.72714791  0.28145359     0.20900
C934        C  0.03390216  0.78265615  0.27378685     0.19100
C935        C  0.02559339  0.80381427  0.26221658    -0.17500
C936        C  0.99824072  0.79164328  0.24698306    -0.19700
C937        C  0.97870601  0.75806300  0.24290156     0.20600
C938        C  0.95116455  0.74551080  0.22765296    -0.32700
C939        C  0.93207229  0.71178029  0.22342452     0.01200
C940        C  0.94065124  0.69073161  0.23488154    -0.24100
C941        C  0.04861687  0.73919180  0.29716971    -0.28600
C942        C  0.06816524  0.77273869  0.30162474     0.06900
C943        C  0.06100917  0.79450241  0.28954387    -0.27300
H944        H  0.00811921  0.67667997  0.28637715     0.11600
H945        H  0.96106438  0.65555605  0.25921969     0.12800
H946        H  0.04016041  0.82980121  0.26504778     0.11800
H947        H  0.99236877  0.80853434  0.23837558     0.11100
H948        H  0.94481173  0.76197121  0.21889383     0.16500
H949        H  0.92602592  0.66473840  0.23198730     0.12400
H950        H  0.05402979  0.72219249  0.30620051     0.15200
H951        H  0.07574779  0.82033961  0.29303992     0.15000
C952        C  0.68507211  0.46644049  0.25528328    -0.17900
C953        C  0.70032934  0.49754626  0.24524167    -0.20000
C954        C  0.73317347  0.51296648  0.23913856     0.20600
C955        C  0.75114255  0.49742157  0.24394406    -0.02900
C956        C  0.73574403  0.46603540  0.25408380    -0.06000
C957        C  0.70243531  0.45030054  0.25936521     0.20900
C958        C  0.75335392  0.44990555  0.25796763     0.19100
C959        C  0.78645115  0.46575179  0.25254509    -0.17500
C960        C  0.80174462  0.49691936  0.24252383    -0.19700
C961        C  0.78416442  0.51269318  0.23775838     0.20600
C962        C  0.79869797  0.54291322  0.22610849    -0.32700
C963        C  0.78053275  0.55788790  0.22032131     0.01200
C964        C  0.74801376  0.54312883  0.22749955    -0.24100
C965        C  0.68668765  0.41813346  0.26746703    -0.28600
C966        C  0.70361312  0.40115882  0.26987953     0.06900
C967        C  0.73723512  0.41766890  0.26603697    -0.27300
H968        H  0.65949150  0.45468182  0.25928850     0.11600
H969        H  0.68625685  0.50924248  0.24172869     0.12800
H970        H  0.80033209  0.45372434  0.25548999     0.11800
H971        H  0.82714852  0.50837465  0.23797257     0.11100
H972        H  0.82384548  0.55418208  0.22079242     0.16500
H973        H  0.73386317  0.55456923  0.22330827     0.12400
H974        H  0.66084993  0.40581743  0.27054591     0.15200
H975        H  0.75063430  0.40496838  0.26802185     0.15000
C976        C  0.20608613  0.65765589  0.55163391    -0.17900
C977        C  0.17446970  0.64017483  0.54277008    -0.20000
C978        C  0.15381070  0.60830823  0.55060629     0.20600
C979        C  0.16471483  0.59405884  0.56799310    -0.02900
C980        C  0.19687931  0.61151436  0.57658882    -0.06000
C981        C  0.21763621  0.64336948  0.56821269     0.20900
C982        C  0.20861131  0.59668322  0.59276275     0.19100
C983        C  0.18755243  0.56508972  0.60112029    -0.17500
C984        C  0.15540750  0.54797647  0.59296005    -0.19700
C985        C  0.14387478  0.56200694  0.57606460     0.20600
C986        C  0.11236269  0.54428592  0.56636630    -0.32700
C987        C  0.10219841  0.55805863  0.54817835     0.01200
C988        C  0.12279742  0.59010709  0.54069331    -0.24100
C989        C  0.25000357  0.65990873  0.57563597    -0.28600
C990        C  0.26240020  0.64463890  0.59050753     0.06900
C991        C  0.24146379  0.61324677  0.59943950    -0.27300
H992        H  0.22177630  0.68206610  0.54501882     0.11600
H993        H  0.16632161  0.65140896  0.52948596     0.12800
H994        H  0.19609277  0.55339969  0.61365357     0.11800
H995        H  0.13980194  0.52345783  0.59939246     0.11100
H996        H  0.09644870  0.51940234  0.57194630     0.16500
H997        H  0.11476711  0.60065665  0.52671237     0.12400
H998        H  0.26604713  0.68394503  0.56847027     0.15200
H999        H  0.25094505  0.60143923  0.61098723     0.15000
C1000       C  0.13406166  0.69122918  0.39945973    -0.17900
C1001       C  0.12220074  0.66250182  0.41299139    -0.20000
C1002       C  0.09090412  0.64748067  0.42284156     0.20600
C1003       C  0.07166519  0.66197082  0.41936412    -0.02900
C1004       C  0.08359562  0.69088837  0.40574100    -0.06000
C1005       C  0.11485583  0.70548904  0.39550480     0.20900
C1006       C  0.06378260  0.70460950  0.40174599     0.19100
C1007       C  0.03278389  0.69007077  0.41191595    -0.17500
C1008       C  0.02110095  0.66164294  0.42551496    -0.19700
C1009       C  0.04018582  0.64724373  0.42907937     0.20600
C1010       C  0.02804824  0.61815754  0.44198455    -0.32700
C1011       C  0.04673269  0.60317275  0.44542552     0.01200
C1012       C  0.07832901  0.61812916  0.43588059    -0.24100
C1013       C  0.12566626  0.73321455  0.38069655    -0.28600
C1014       C  0.10516497  0.74577623  0.37571823     0.06900
C1015       C  0.07470016  0.73185186  0.38679776    -0.27300
H1016       H  0.15808470  0.70201255  0.39175898     0.11600
H1017       H  0.13739349  0.65183021  0.41551809     0.12800
H1018       H  0.01735828  0.70041108  0.40902024     0.11800
H1019       H  0.99692152  0.65064910  0.43295928     0.11100
H1020       H  0.00378477  0.60711162  0.44929416     0.16500
H1021       H  0.09306312  0.60695928  0.43853241     0.12400
H1022       H  0.14900940  0.74369451  0.37185584     0.15200
H1023       H  0.05889829  0.74154006  0.38290168     0.15000
C1024       C  0.86952848  0.28383387  0.57480544    -0.17900
C1025       C  0.88179669  0.30975572  0.55819505    -0.20000
C1026       C  0.90741490  0.34053777  0.56492391     0.20600
C1027       C  0.92052826  0.34518214  0.58873280    -0.02900
C1028       C  0.90821028  0.31907330  0.60543205    -0.06000
C1029       C  0.88264707  0.28812077  0.59848727     0.20900
C1030       C  0.92178114  0.32397015  0.62903982     0.19100
C1031       C  0.94722233  0.35463848  0.63592067    -0.17500
C1032       C  0.95931447  0.38039450  0.61947860    -0.19700
C1033       C  0.94616167  0.37591467  0.59588945     0.20600
C1034       C  0.95836444  0.40175101  0.57940685    -0.32700
C1035       C  0.94568270  0.39758658  0.55560105     0.01200
C1036       C  0.92022502  0.36675871  0.54838818    -0.24100
C1037       C  0.87123235  0.26204606  0.61519366    -0.28600
C1038       C  0.88538810  0.26674771  0.63862287     0.06900
C1039       C  0.91020065  0.29806598  0.64535627    -0.27300
H1040       H  0.84990992  0.26035370  0.56905367     0.11600
H1041       H  0.87129962  0.30567935  0.54003343     0.12800
H1042       H  0.95791580  0.35867136  0.65401572     0.11800
H1043       H  0.97904418  0.40383366  0.62520577     0.11100
H1044       H  0.97811564  0.42520297  0.58512931     0.16500
H1045       H  0.91021183  0.36327997  0.53008462     0.12400
H1046       H  0.85216544  0.23810109  0.60974033     0.15200
H1047       H  0.92115120  0.30238254  0.66338103     0.15000
C1048       C  0.93477096  0.58602560  0.63610169    -0.17900
C1049       C  0.94638393  0.57064341  0.62074688    -0.20000
C1050       C  0.93931486  0.56739936  0.59562646     0.20600
C1051       C  0.91998046  0.57944582  0.58592828    -0.02900
C1052       C  0.90808083  0.59491848  0.60151706    -0.06000
C1053       C  0.91580480  0.59839161  0.62663953     0.20900
C1054       C  0.88900535  0.60739084  0.59193665     0.19100
C1055       C  0.88177903  0.60384014  0.56678314    -0.17500
C1056       C  0.89363076  0.58856357  0.55132101    -0.19700
C1057       C  0.91294597  0.57645338  0.56066369     0.20600
C1058       C  0.92564452  0.56176115  0.54522315    -0.32700
C1059       C  0.94524544  0.54989619  0.55475404     0.01200
C1060       C  0.95162376  0.55266268  0.58007739    -0.24100
C1061       C  0.90517337  0.61486587  0.64185609    -0.28600
C1062       C  0.88695958  0.62835611  0.63255071     0.06900
C1063       C  0.87830947  0.62387227  0.60756367    -0.27300
H1064       H  0.94090673  0.58853432  0.65538870     0.11600
H1065       H  0.96117469  0.56153755  0.62850541     0.12800
H1066       H  0.86722244  0.61319500  0.55899611     0.11800
H1067       H  0.88787647  0.58644964  0.53197824     0.11100
H1068       H  0.92041085  0.55975543  0.52578640     0.16500
H1069       H  0.96663786  0.54374770  0.58773596     0.12400
H1070       H  0.91179057  0.61781807  0.66107298     0.15200
H1071       H  0.86452812  0.63431906  0.60012633     0.15000
C1072       C  0.83931993  0.47146745  0.41293008    -0.17900
C1073       C  0.80756338  0.45655474  0.40404117    -0.20000
C1074       C  0.78853534  0.42257098  0.40315706     0.20600
C1075       C  0.80224273  0.40348398  0.41007018    -0.02900
C1076       C  0.83422222  0.41851342  0.41910893    -0.06000
C1077       C  0.85253612  0.45264064  0.42115044     0.20900
C1078       C  0.84725110  0.39930366  0.42723565     0.19100
C1079       C  0.82883183  0.36538303  0.42520444    -0.17500
C1080       C  0.79720957  0.35051137  0.41619746    -0.19700
C1081       C  0.78351031  0.36932984  0.40910552     0.20600
C1082       C  0.75094758  0.35450894  0.40223867    -0.32700
C1083       C  0.73641697  0.37326913  0.39691793     0.01200
C1084       C  0.75567900  0.40734439  0.39663397    -0.24100
C1085       C  0.88301244  0.46720240  0.43252294    -0.28600
C1086       C  0.89526102  0.44802881  0.44207994     0.06900
C1087       C  0.87777281  0.41419235  0.43841653    -0.27300
H1088       H  0.85317569  0.49772001  0.41412471     0.11600
H1089       H  0.79757027  0.47160195  0.39855388     0.12800
H1090       H  0.83854671  0.35030491  0.43125605     0.11800
H1091       H  0.78313818  0.32423814  0.41546607     0.11100
H1092       H  0.73652752  0.32823964  0.40242481     0.16500
H1093       H  0.74485650  0.42203259  0.39229089     0.12400
H1094       H  0.89650144  0.49334182  0.43491432     0.15200
H1095       H  0.88707088  0.39918046  0.44547001     0.15000
C1096       C  0.70976715  0.61753201  0.04483918    -0.17900
C1097       C  0.68329203  0.60646568  0.02904139    -0.20000
C1098       C  0.65211206  0.58419791  0.03717197     0.20600
C1099       C  0.64752732  0.57244267  0.06131099    -0.02900
C1100       C  0.67434863  0.58381998  0.07737456    -0.06000
C1101       C  0.70552198  0.60661713  0.06907319     0.20900
C1102       C  0.66992094  0.57290607  0.10178438     0.19100
C1103       C  0.63871635  0.54998445  0.10965736    -0.17500
C1104       C  0.61212552  0.53857746  0.09368068    -0.19700
C1105       C  0.61614647  0.54991709  0.06950777     0.20600
C1106       C  0.58941326  0.53991198  0.05358522    -0.32700
C1107       C  0.59382502  0.55263709  0.02973244     0.01200
C1108       C  0.62543140  0.57420781  0.02166464    -0.24100
C1109       C  0.73192355  0.61861286  0.08517605    -0.28600
C1110       C  0.72785497  0.60865738  0.10974798     0.06900
C1111       C  0.69668301  0.58549473  0.11788316    -0.27300
H1112       H  0.73355003  0.63498804  0.03817590     0.11600
H1113       H  0.68716667  0.61565008  0.01050888     0.12800
H1114       H  0.63480109  0.54112431  0.12827982     0.11800
H1115       H  0.58832228  0.52122271  0.10035887     0.11100
H1116       H  0.56523335  0.52330645  0.06003044     0.16500
H1117       H  0.62934911  0.58386974  0.00326561     0.12400
H1118       H  0.75567049  0.63636853  0.07861601     0.15200
H1119       H  0.69322094  0.57739111  0.13670912     0.15000
C1120       C  0.61744336  0.05283795  0.61975721    -0.17900
C1121       C  0.64321687  0.06399882  0.63628674    -0.20000
C1122       C  0.67479455  0.08600632  0.62876392     0.20600
C1123       C  0.68041853  0.09764413  0.60455337    -0.02900
C1124       C  0.65436073  0.08610346  0.58775677    -0.06000
C1125       C  0.62282363  0.06335964  0.59538450     0.20900
C1126       C  0.65997553  0.09666653  0.56324214     0.19100
C1127       C  0.69149118  0.11954604  0.55601081    -0.17500
C1128       C  0.71730008  0.13115973  0.57270713    -0.19700
C1129       C  0.71215399  0.12001505  0.59694903     0.20600
C1130       C  0.73819895  0.12982621  0.61345206    -0.32700
C1131       C  0.73280287  0.11682492  0.63720279     0.01200
C1132       C  0.70092153  0.09562473  0.64482588    -0.24100
C1133       C  0.59726601  0.05096516  0.57844967    -0.28600
C1134       C  0.60262014  0.06050740  0.55374433     0.06900
C1135       C  0.63410839  0.08372028  0.54635516    -0.27300
H1136       H  0.59335213  0.03549041  0.62593453     0.11600
H1137       H  0.63851443  0.05497543  0.65487152     0.12800
H1138       H  0.69627554  0.12813882  0.53731893     0.11800
H1139       H  0.74141358  0.14839123  0.56650915     0.11100
H1140       H  0.76268517  0.14613083  0.60744066     0.16500
H1141       H  0.69649042  0.08584603  0.66320633     0.12400
H1142       H  0.57321579  0.03323160  0.58447452     0.15200
H1143       H  0.63854051  0.09154532  0.52746303     0.15000
C1144       C  0.86747495  0.98236033  0.91713628    -0.17900
C1145       C  0.83544002  0.96697759  0.90893269    -0.20000
C1146       C  0.81848778  0.93339174  0.90448359     0.20600
C1147       C  0.83345996  0.91488314  0.90934829    -0.02900
C1148       C  0.86577581  0.93040533  0.91765468    -0.06000
C1149       C  0.88305353  0.96439706  0.92105019     0.20900
C1150       C  0.88120454  0.91210924  0.92148109     0.19100
C1151       C  0.86383225  0.87832521  0.91798189    -0.17500
C1152       C  0.83181079  0.86294443  0.90973686    -0.19700
C1153       C  0.81666652  0.88110779  0.90486117     0.20600
C1154       C  0.78562974  0.86635254  0.89450491    -0.32700
C1155       C  0.77128068  0.88498644  0.88827662     0.01200
C1156       C  0.78742718  0.91829248  0.89417264    -0.24100
C1157       C  0.91598256  0.98002260  0.92714925    -0.28600
C1158       C  0.93204390  0.96217451  0.92956108     0.06900
C1159       C  0.91411858  0.92805846  0.92759315    -0.27300
H1160       H  0.88034381  0.00845251  0.91977985     0.11600
H1161       H  0.82421789  0.98150250  0.90541207     0.12800
H1162       H  0.87529301  0.86390664  0.92096774     0.11800
H1163       H  0.81918738  0.83696172  0.90652708     0.11100
H1164       H  0.77329735  0.84060920  0.89028918     0.16500
H1165       H  0.77651262  0.93285243  0.88967370     0.12400
H1166       H  0.92938982  0.00625722  0.92880419     0.15200
H1167       H  0.92605773  0.91392666  0.92963863     0.15000
C1168       C  0.78490386  0.73643742  0.75966980    -0.17900
C1169       C  0.77146053  0.74901369  0.77617905    -0.20000
C1170       C  0.75383641  0.76344079  0.76769449     0.20600
C1171       C  0.75031141  0.76575639  0.74227036    -0.02900
C1172       C  0.76383991  0.75302777  0.72560698    -0.06000
C1173       C  0.78097579  0.73797729  0.73431878     0.20900
C1174       C  0.75938150  0.75454661  0.70024307     0.19100
C1175       C  0.74238830  0.76955361  0.69168543    -0.17500
C1176       C  0.72920869  0.78230090  0.70813700    -0.19700
C1177       C  0.73269045  0.78018431  0.73345254     0.20600
C1178       C  0.71844949  0.79185464  0.75003556    -0.32700
C1179       C  0.72131457  0.78926567  0.77548153     0.01200
C1180       C  0.73934412  0.77519503  0.78413372    -0.24100
C1181       C  0.79269037  0.72365252  0.71757719    -0.28600
C1182       C  0.78677283  0.72365319  0.69232589     0.06900
C1183       C  0.77085962  0.73994176  0.68387421    -0.27300
H1184       H  0.79794593  0.72501919  0.76676366     0.11600
H1185       H  0.77453958  0.74710198  0.79563174     0.12800
H1186       H  0.73883777  0.77097697  0.67224027     0.11800
H1187       H  0.71586596  0.79340858  0.70104728     0.11100
H1188       H  0.70482677  0.80271943  0.74303662     0.16500
H1189       H  0.74193534  0.77316719  0.80364940     0.12400
H1190       H  0.80462710  0.71089584  0.72426112     0.15200
H1191       H  0.76633128  0.74019951  0.66444470     0.15000
C1192       C  0.71862929  0.98368266  0.69872702    -0.17900
C1193       C  0.70759986  0.95695824  0.71424938    -0.20000
C1194       C  0.71858111  0.96103559  0.73853592     0.20600
C1195       C  0.74138179  0.99229776  0.74715391    -0.02900
C1196       C  0.75277879  0.01934556  0.73136081    -0.06000
C1197       C  0.74095393  0.01495248  0.70717536     0.20900
C1198       C  0.77542010  0.05078382  0.73988740     0.19100
C1199       C  0.78671944  0.05466693  0.76411731    -0.17500
C1200       C  0.77525884  0.02787916  0.77982354    -0.19700
C1201       C  0.75236397  0.99659610  0.77160864     0.20600
C1202       C  0.74001906  0.96961861  0.78740378    -0.32700
C1203       C  0.71705379  0.93831108  0.77894537     0.01200
C1204       C  0.70679918  0.93438564  0.75436205    -0.24100
C1205       C  0.75091423  0.04194263  0.69199542    -0.28600
C1206       C  0.77266555  0.07355962  0.70043395     0.06900
C1207       C  0.78554873  0.07774985  0.72425560    -0.27300
H1208       H  0.70939867  0.97993029  0.68015957     0.11600
H1209       H  0.69014868  0.93311292  0.70732721     0.12800
H1210       H  0.80410491  0.07852396  0.77104937     0.11800
H1211       H  0.78412844  0.03169325  0.79849388     0.11100
H1212       H  0.74830916  0.97299615  0.80622714     0.16500
H1213       H  0.68914556  0.91053721  0.74754845     0.12400
H1214       H  0.74113608  0.03835215  0.67359228     0.15200
H1215       H  0.80222232  0.10198958  0.73095312     0.15000
C1216       C  0.53132495  0.64676741  0.93824875    -0.17900
C1217       C  0.54402669  0.67507895  0.92412156    -0.20000
C1218       C  0.57415781  0.68737332  0.91261861     0.20600
C1219       C  0.59141794  0.67066379  0.91514937    -0.02900
C1220       C  0.57862605  0.64212158  0.92942688    -0.06000
C1221       C  0.54849622  0.63016384  0.94119473     0.20900
C1222       C  0.59643612  0.62605843  0.93242652     0.19100
C1223       C  0.62630627  0.63799416  0.92068939    -0.17500
C1224       C  0.63881709  0.66604217  0.90644953    -0.19700
C1225       C  0.62175737  0.68275335  0.90377310     0.20600
C1226       C  0.63475570  0.71151720  0.89014274    -0.32700
C1227       C  0.61798080  0.72866241  0.88763937     0.01200
C1228       C  0.58749120  0.71620519  0.89886370    -0.24100
C1229       C  0.53674504  0.60258160  0.95634995    -0.28600
C1230       C  0.55522358  0.58745287  0.96021255     0.06900
C1231       C  0.58467821  0.59901147  0.94779354    -0.27300
H1232       H  0.50823134  0.63809523  0.94714046     0.11600
H1233       H  0.53038001  0.68754094  0.92237569     0.12800
H1234       H  0.64022327  0.62585689  0.92278622     0.11800
H1235       H  0.66207762  0.67490998  0.89777524     0.11100
H1236       H  0.65810753  0.72061675  0.88154772     0.16500
H1237       H  0.57420970  0.72904513  0.89706776     0.12400
H1238       H  0.51428892  0.59407950  0.96618234     0.15200
H1239       H  0.59903161  0.58746689  0.95078387     0.15000
C1240       C  0.46679170  0.67987844  0.76239178    -0.17900
C1241       C  0.49837934  0.69634567  0.77149560    -0.20000
C1242       C  0.51520412  0.73031746  0.77332257     0.20600
C1243       C  0.50034690  0.74799277  0.76547953    -0.02900
C1244       C  0.46838921  0.73134352  0.75645839    -0.06000
C1245       C  0.45149749  0.69712637  0.75509860     0.20900
C1246       C  0.45307754  0.74887236  0.74943729     0.19100
C1247       C  0.47009681  0.78290963  0.75096546    -0.17500
C1248       C  0.50186274  0.79945543  0.75980563    -0.19700
C1249       C  0.51708153  0.78222263  0.76731742     0.20600
C1250       C  0.54834696  0.79845800  0.77731334    -0.32700
C1251       C  0.56265029  0.78076188  0.78570307     0.01200
C1252       C  0.54626807  0.74687708  0.78350871    -0.24100
C1253       C  0.41928090  0.68065713  0.74719902    -0.28600
C1254       C  0.40340536  0.69784183  0.74100617     0.06900
C1255       C  0.42073238  0.73202741  0.74170478    -0.27300
H1256       H  0.45411820  0.65359633  0.76144918     0.11600
H1257       H  0.50950536  0.68248337  0.77740711     0.12800
H1258       H  0.45868106  0.79671996  0.74563426     0.11800
H1259       H  0.51435540  0.82570652  0.76111926     0.11100
H1260       H  0.56108710  0.82465234  0.77943270     0.16500
H1261       H  0.55746448  0.73343832  0.79030672     0.12400
H1262       H  0.40627680  0.65434292  0.74675144     0.15200
H1263       H  0.40883627  0.74557387  0.73691224     0.15000
C1264       C  0.45117273  0.32768480  0.57674040    -0.17900
C1265       C  0.43419899  0.29916813  0.59050154    -0.20000
C1266       C  0.40379007  0.29030907  0.60038087     0.20600
C1267       C  0.39021499  0.31023906  0.59588865    -0.02900
C1268       C  0.40726425  0.33890486  0.58194289    -0.06000
C1269       C  0.43806614  0.34791074  0.57250857     0.20900
C1270       C  0.39359595  0.35875709  0.57774316     0.19100
C1271       C  0.36304772  0.34979261  0.58724686    -0.17500
C1272       C  0.34633612  0.32164662  0.60116572    -0.19700
C1273       C  0.35982628  0.30191172  0.60573468     0.20600
C1274       C  0.34374394  0.27450102  0.62056513    -0.32700
C1275       C  0.35738952  0.25499171  0.62592403     0.01200
C1276       C  0.38711263  0.26251873  0.61523075    -0.24100
C1277       C  0.45515840  0.37699009  0.55914763    -0.28600
C1278       C  0.44159575  0.39694008  0.55492527     0.06900
C1279       C  0.41069782  0.38737663  0.56425817    -0.27300
H1280       H  0.47470201  0.33404834  0.56955626     0.11600
H1281       H  0.44506642  0.28424803  0.59367729     0.12800
H1282       H  0.35220182  0.36474946  0.58412454     0.11800
H1283       H  0.32296880  0.31549054  0.60858861     0.11100
H1284       H  0.32070696  0.26872884  0.62848015     0.16500
H1285       H  0.39788413  0.24772866  0.61936047     0.12400
H1286       H  0.47879476  0.38390464  0.55187486     0.15200
H1287       H  0.39990949  0.40241178  0.56120302     0.15000
C1288       C  0.34937138  0.42145705  0.36186597    -0.17900
C1289       C  0.37629942  0.43580098  0.37734792    -0.20000
C1290       C  0.37239217  0.43644436  0.40272122     0.20600
C1291       C  0.34101821  0.42301983  0.41256924    -0.02900
C1292       C  0.31374346  0.40857106  0.39688540    -0.06000
C1293       C  0.31807557  0.40754167  0.37148792     0.20900
C1294       C  0.28221269  0.39449540  0.40662593     0.19100
C1295       C  0.27844719  0.39570613  0.43202213    -0.17500
C1296       C  0.30550912  0.41007993  0.44757973    -0.19700
C1297       C  0.33688810  0.42350554  0.43806450     0.20600
C1298       C  0.36416624  0.43703740  0.45355605    -0.32700
C1299       C  0.39557926  0.45011633  0.44386946     0.01200
C1300       C  0.39934645  0.44992729  0.41836748    -0.24100
C1301       C  0.29108847  0.39167776  0.35614052    -0.28600
C1302       C  0.25951215  0.37627483  0.36562161     0.06900
C1303       C  0.25516083  0.37855808  0.39087434    -0.27300
H1304       H  0.35301836  0.42083229  0.34235726     0.11600
H1305       H  0.40019696  0.44605881  0.36948469     0.12800
H1306       H  0.25453867  0.38513017  0.43990331     0.11800
H1307       H  0.30186183  0.41035090  0.46711488     0.11100
H1308       H  0.36088711  0.43722893  0.47315655     0.16500
H1309       H  0.42330575  0.45999669  0.41062997     0.12400
H1310       H  0.29475007  0.39040149  0.33668475     0.15200
H1311       H  0.23096592  0.36661874  0.39836336     0.15000
C1312       C  0.70000489  0.57017456  0.59029887    -0.17900
C1313       C  0.67082225  0.55212187  0.57741715    -0.20000
C1314       C  0.65040258  0.56494553  0.57313270     0.20600
C1315       C  0.65985284  0.59653337  0.58159421    -0.02900
C1316       C  0.68929238  0.61475003  0.59453906    -0.06000
C1317       C  0.70941019  0.60145228  0.59914709     0.20900
C1318       C  0.69825789  0.64606892  0.60324804     0.19100
C1319       C  0.67824709  0.65921407  0.59866561    -0.17500
C1320       C  0.64924785  0.64127755  0.58582235    -0.19700
C1321       C  0.63974430  0.60987468  0.57735925     0.20600
C1322       C  0.61044251  0.59167302  0.56476060    -0.32700
C1323       C  0.60057933  0.56008241  0.55624697     0.01200
C1324       C  0.62076354  0.54684469  0.56057247    -0.24100
C1325       C  0.73795877  0.61928236  0.61311951    -0.28600
C1326       C  0.74624965  0.65003933  0.62269754     0.06900
C1327       C  0.72659324  0.66344130  0.61702403    -0.27300
H1328       H  0.71505929  0.55950370  0.59357068     0.11600
H1329       H  0.66410215  0.52798464  0.57096137     0.12800
H1330       H  0.68485963  0.68327322  0.60526033     0.11800
H1331       H  0.63411844  0.65189642  0.58266178     0.11100
H1332       H  0.59528181  0.60225925  0.56155473     0.16500
H1333       H  0.61364985  0.52268896  0.55390051     0.12400
H1334       H  0.75280572  0.60866002  0.61744984     0.15200
H1335       H  0.73284769  0.68725457  0.62401153     0.15000
C1336       C  0.56961993  0.64813747  0.36298011    -0.17900
C1337       C  0.55497993  0.62158220  0.37869856    -0.20000
C1338       C  0.55831911  0.62617986  0.40412120     0.20600
C1339       C  0.57605184  0.65791216  0.41386512    -0.02900
C1340       C  0.59070876  0.68482694  0.39795648    -0.06000
C1341       C  0.58773990  0.67974801  0.37242411     0.20900
C1342       C  0.60893573  0.71666059  0.40753868     0.19100
C1343       C  0.61195150  0.72116675  0.43302914    -0.17500
C1344       C  0.59743529  0.69444658  0.44881531    -0.19700
C1345       C  0.57958809  0.66268488  0.43942567     0.20600
C1346       C  0.56553746  0.63559583  0.45505317    -0.32700
C1347       C  0.54812637  0.60378305  0.44539057     0.01200
C1348       C  0.54452581  0.59948202  0.41987641    -0.24100
C1349       C  0.60378467  0.70621279  0.35670692    -0.28600
C1350       C  0.62276237  0.73788375  0.36598093     0.06900
C1351       C  0.62462636  0.74316187  0.39142922    -0.27300
H1352       H  0.56710357  0.64391001  0.34339759     0.11600
H1353       H  0.54136087  0.59737734  0.37094622     0.12800
H1354       H  0.62587706  0.74534432  0.44076725     0.11800
H1355       H  0.60041418  0.69861820  0.46838960     0.11100
H1356       H  0.56846426  0.63928421  0.47468094     0.16500
H1357       H  0.53107177  0.57522681  0.41216497     0.12400
H1358       H  0.60229420  0.70208024  0.33709499     0.15200
H1359       H  0.63960250  0.76750913  0.39864424     0.15000
C1360       C  0.63772839  0.47237663  0.43775985    -0.17900
C1361       C  0.65393036  0.45740670  0.42775046    -0.20000
C1362       C  0.63655343  0.42542054  0.41882179     0.20600
C1363       C  0.60246948  0.40870074  0.41930579    -0.02900
C1364       C  0.58609426  0.42390044  0.42920387    -0.06000
C1365       C  0.60386459  0.45569303  0.43886471     0.20900
C1366       C  0.55198720  0.40691876  0.43011216     0.19100
C1367       C  0.53461113  0.37516858  0.42078178    -0.17500
C1368       C  0.55085226  0.36003713  0.41115963    -0.19700
C1369       C  0.58474726  0.37644911  0.41060121     0.20600
C1370       C  0.60119075  0.36077492  0.40226866    -0.32700
C1371       C  0.63520320  0.37680243  0.40259476     0.01200
C1372       C  0.65267808  0.40949334  0.41025948    -0.24100
C1373       C  0.58746137  0.46983817  0.45005104    -0.28600
C1374       C  0.55361008  0.45276920  0.45132133     0.06900
C1375       C  0.53593467  0.42164470  0.44097558    -0.27300
H1376       H  0.65171335  0.49684632  0.44497387     0.11600
H1377       H  0.68010212  0.47062504  0.42746132     0.12800
H1378       H  0.50844950  0.36181095  0.42132992     0.11800
H1379       H  0.53688818  0.33528024  0.40450034     0.11100
H1380       H  0.58740100  0.33570129  0.39624194     0.16500
H1381       H  0.67885489  0.42217975  0.41060370     0.12400
H1382       H  0.60095499  0.49385971  0.45817162     0.15200
H1383       H  0.50979519  0.40850759  0.44222254     0.15000
C1384       C  0.35658567  0.53586961  0.56374368    -0.17900
C1385       C  0.34082068  0.55224265  0.57194264    -0.20000
C1386       C  0.35847486  0.58559153  0.57733941     0.21200
C1387       C  0.39239885  0.60246521  0.57469181    -0.02900
C1388       C  0.40826030  0.58601754  0.56633019    -0.06000
C1389       C  0.39027143  0.55258006  0.56073697     0.20900
C1390       C  0.44207752  0.60322377  0.56314940     0.19100
C1391       C  0.45978006  0.63651343  0.56853647    -0.17500
C1392       C  0.44411055  0.65275057  0.57690286    -0.19700
C1393       C  0.41048842  0.63596411  0.57992325     0.20600
C1394       C  0.39465476  0.65243065  0.58740987    -0.32700
C1395       C  0.36074895  0.63624568  0.58920593     0.01200
C1396       C  0.34281335  0.60258658  0.58463000    -0.24100
C1397       C  0.40623823  0.53666722  0.55177094    -0.28600
C1398       C  0.43994083  0.55387627  0.54815212     0.06900
C1399       C  0.45763005  0.58706825  0.55418607    -0.27300
H1400       H  0.34238056  0.51019280  0.55950253     0.11600
H1401       H  0.31477783  0.53888084  0.57382770     0.12800
H1402       H  0.48573842  0.65005767  0.56610034     0.11800
H1403       H  0.45826251  0.67854946  0.58074078     0.11100
H1404       H  0.40888502  0.67830552  0.59095908     0.16500
H1405       H  0.31669261  0.58985352  0.58586599     0.12400
H1406       H  0.39230567  0.51111461  0.54703364     0.15200
H1407       H  0.48353872  0.60062510  0.55141397     0.15000
C1408       C  0.62681252  0.98565085  0.92804872    -0.17900
C1409       C  0.63993725  0.97083882  0.91364273    -0.20000
C1410       C  0.62215242  0.93739965  0.90873022     0.20600
C1411       C  0.59056926  0.91877532  0.91807815    -0.02900
C1412       C  0.57720038  0.93379218  0.93253704    -0.06000
C1413       C  0.59564238  0.96729844  0.93772381     0.20900
C1414       C  0.54581077  0.91518110  0.94233598     0.19100
C1415       C  0.52798844  0.88175345  0.93722302    -0.17500
C1416       C  0.54124157  0.86687263  0.92285677    -0.19700
C1417       C  0.57258535  0.88511787  0.91332659     0.20600
C1418       C  0.58636405  0.87030686  0.89931019    -0.32700
C1419       C  0.61797720  0.88871135  0.89000087     0.01200
C1420       C  0.63557926  0.92230432  0.89480228    -0.24100
C1421       C  0.58315784  0.98169540  0.95327524    -0.28600
C1422       C  0.55247470  0.96323829  0.96382291     0.06900
C1423       C  0.53344123  0.93013737  0.95780686    -0.27300
H1424       H  0.64123175  0.01142455  0.93189627     0.11600
H1425       H  0.66417421  0.98549734  0.90656314     0.12800
H1426       H  0.50393315  0.86701739  0.94459461     0.11800
H1427       H  0.52705350  0.84099261  0.91937803     0.11100
H1428       H  0.57247484  0.84442311  0.89573215     0.16500
H1429       H  0.65984943  0.93681449  0.88772282     0.12400
H1430       H  0.59791439  0.00718890  0.95805094     0.15200
H1431       H  0.51001975  0.91574936  0.96629153     0.15000
C1432       C  0.09737833  0.45139482  0.89367113    -0.17900
C1433       C  0.08427264  0.46450216  0.91007356    -0.20000
C1434       C  0.07550695  0.45208098  0.93386585     0.20600
C1435       C  0.08085793  0.42669333  0.94124866    -0.02900
C1436       C  0.09396037  0.41343123  0.92472091    -0.06000
C1437       C  0.10196241  0.42555811  0.90070068     0.20900
C1438       C  0.09850851  0.38760779  0.93217925     0.19100
C1439       C  0.09039411  0.37551654  0.95601931    -0.17500
C1440       C  0.07752961  0.38862586  0.97232403    -0.19700
C1441       C  0.07245878  0.41396814  0.96502928     0.20600
C1442       C  0.05810078  0.42593182  0.98097883    -0.32700
C1443       C  0.05084908  0.44993771  0.97357674     0.01200
C1444       C  0.06053054  0.46368218  0.95013436    -0.24100
C1445       C  0.11406074  0.41137394  0.88418659    -0.28600
C1446       C  0.11846463  0.38541201  0.89156998     0.06900
C1447       C  0.11078210  0.37397838  0.91568160    -0.27300
H1448       H  0.10356876  0.46122683  0.87536552     0.11600
H1449       H  0.08056426  0.48405876  0.90401660     0.12800
H1450       H  0.09374163  0.35570043  0.96200389     0.11800
H1451       H  0.07108627  0.37859256  0.99056523     0.11100
H1452       H  0.05147690  0.41547671  0.99909562     0.16500
H1453       H  0.05522043  0.48223703  0.94421576     0.12400
H1454       H  0.12008544  0.42054657  0.86568662     0.15200
H1455       H  0.11390484  0.35398702  0.92160143     0.15000
C1456       C  0.64332482  0.98929353  0.41264678    -0.17900
C1457       C  0.65941666  0.97659141  0.39934144    -0.20000
C1458       C  0.64360781  0.94355617  0.39294983     0.20600
C1459       C  0.61140786  0.92294423  0.40021810    -0.02900
C1460       C  0.59506535  0.93584601  0.41355623    -0.06000
C1461       C  0.61112436  0.96919010  0.41973200     0.20900
C1462       C  0.56263339  0.91550108  0.42047128     0.19100
C1463       C  0.54698663  0.88236430  0.41424401    -0.17500
C1464       C  0.56320691  0.86955929  0.40103272    -0.19700
C1465       C  0.59538897  0.88964547  0.39376508     0.20600
C1466       C  0.61152753  0.87737640  0.37952554    -0.32700
C1467       C  0.64322328  0.89826416  0.37140985     0.01200
C1468       C  0.65921855  0.93108166  0.37876096    -0.24100
C1469       C  0.59475385  0.98193513  0.43282315    -0.28600
C1470       C  0.56236387  0.96192118  0.43976838     0.06900
C1471       C  0.54645467  0.92866916  0.43344101    -0.27300
H1472       H  0.65600943  0.01491985  0.41724368     0.11600
H1473       H  0.68417242  0.99270050  0.39383509     0.12800
H1474       H  0.52209631  0.86635272  0.41946965     0.11800
H1475       H  0.55044751  0.84398946  0.39627178     0.11100
H1476       H  0.59895753  0.85215985  0.37374491     0.16500
H1477       H  0.68373906  0.94731119  0.37273728     0.12400
H1478       H  0.60727746  0.00753436  0.43754312     0.15200
H1479       H  0.52156122  0.91292177  0.43881328     0.15000
C1480       C  0.12244528  0.44646438  0.42685529    -0.17900
C1481       C  0.13311217  0.42866300  0.41308413    -0.20000
C1482       C  0.11084745  0.39837274  0.40288817     0.20600
C1483       C  0.07753107  0.38573338  0.40712500    -0.02900
C1484       C  0.06679331  0.40364582  0.42098600    -0.06000
C1485       C  0.08928958  0.43434551  0.43071829     0.20900
C1486       C  0.03342814  0.39095417  0.42475960     0.19100
C1487       C  0.01112496  0.36052978  0.41498222    -0.17500
C1488       C  0.02170867  0.34290271  0.40126026    -0.19700
C1489       C  0.05476976  0.35541009  0.39710302     0.20600
C1490       C  0.06522315  0.33837352  0.38248459    -0.32700
C1491       C  0.09818567  0.35115820  0.37717272     0.01200
C1492       C  0.12106546  0.38090040  0.38797621    -0.24100
C1493       C  0.07811830  0.45233987  0.44391338    -0.28600
C1494       C  0.04472788  0.43973881  0.44760244     0.06900
C1495       C  0.02273633  0.40891868  0.43803986    -0.27300
H1496       H  0.14014294  0.46988548  0.43428323     0.11600
H1497       H  0.15878111  0.43879772  0.41014906     0.12800
H1498       H  0.98543119  0.35047997  0.41775851     0.11800
H1499       H  0.00397392  0.31961860  0.39363718     0.11100
H1500       H  0.04732036  0.31530520  0.37463186     0.16500
H1501       H  0.14650736  0.39101617  0.38400933     0.12400
H1502       H  0.09532224  0.47595884  0.45135502     0.15200
H1503       H  0.99700735  0.39891560  0.44065372     0.15000
C1504       C  0.68919581  0.03840893  0.06963213    -0.17900
C1505       C  0.66100798  0.02124835  0.05578916    -0.20000
C1506       C  0.63782217  0.03107554  0.05540657     0.20600
C1507       C  0.64279704  0.05825950  0.06920286    -0.02900
C1508       C  0.67145173  0.07574944  0.08316478    -0.06000
C1509       C  0.69467084  0.06569206  0.08330058     0.20900
C1510       C  0.67700608  0.10335239  0.09676974     0.19100
C1511       C  0.65342201  0.11277162  0.09656653    -0.17500
C1512       C  0.62493431  0.09536356  0.08271555    -0.19700
C1513       C  0.61942899  0.06818030  0.06874718     0.20600
C1514       C  0.59156046  0.05124973  0.05383788    -0.32700
C1515       C  0.58721376  0.02478545  0.03932775     0.01200
C1516       C  0.61015690  0.01451618  0.04090643    -0.24100
C1517       C  0.72304181  0.08301107  0.09706134    -0.28600
C1518       C  0.72907369  0.11066491  0.11058775     0.06900
C1519       C  0.70599331  0.12088647  0.11027202    -0.27300
H1520       H  0.70681559  0.03042666  0.06954482     0.11600
H1521       H  0.65746442  0.00040891  0.04519428     0.12800
H1522       H  0.65709570  0.13375802  0.10701050     0.11800
H1523       H  0.60735741  0.10339210  0.08272940     0.11100
H1524       H  0.57409990  0.05939554  0.05279616     0.16500
H1525       H  0.60696347  0.99384846  0.03023295     0.12400
H1526       H  0.74068069  0.07502861  0.09709193     0.15200
H1527       H  0.71031284  0.14201181  0.12085094     0.15000
C1528       C  0.97391880  0.32353662  0.08640861    -0.17900
C1529       C  0.99088705  0.35204612  0.07288577    -0.20000
C1530       C  0.97564092  0.36915340  0.06510986     0.20600
C1531       C  0.94308197  0.35768530  0.07117416    -0.02900
C1532       C  0.92584553  0.32870532  0.08477333    -0.06000
C1533       C  0.94138043  0.31158766  0.09235801     0.20900
C1534       C  0.89307903  0.31672629  0.09056497     0.19100
C1535       C  0.87798730  0.33407960  0.08286615    -0.17500
C1536       C  0.89507872  0.36281901  0.06938474    -0.19700
C1537       C  0.92763445  0.37482897  0.06329453     0.20600
C1538       C  0.94474143  0.40300193  0.04887208    -0.32700
C1539       C  0.97688732  0.41373316  0.04200298     0.01200
C1540       C  0.99221901  0.39699545  0.05075399    -0.24100
C1541       C  0.92419089  0.28278518  0.10571776    -0.28600
C1542       C  0.89146103  0.27047637  0.11165483     0.06900
C1543       C  0.87605375  0.28765221  0.10390117    -0.27300
H1544       H  0.98621413  0.31070740  0.09208955     0.11600
H1545       H  0.01590275  0.36057065  0.06831163     0.12800
H1546       H  0.85285683  0.32532450  0.08716643     0.11800
H1547       H  0.88271083  0.37549550  0.06351913     0.11100
H1548       H  0.93263440  0.41550539  0.04201564     0.16500
H1549       H  0.01703829  0.40514947  0.04570352     0.12400
H1550       H  0.93641685  0.26990491  0.11147085     0.15200
H1551       H  0.85091243  0.27857094  0.10839716     0.15000
C1552       C  0.72622723  0.94580807  0.23422841    -0.17900
C1553       C  0.73929264  0.97244800  0.21831605    -0.20000
C1554       C  0.75428104  0.00436089  0.22754683     0.20600
C1555       C  0.75663253  0.00940375  0.25309351    -0.02900
C1556       C  0.74357777  0.98257786  0.26912434    -0.06000
C1557       C  0.72795165  0.95053999  0.25969648     0.20900
C1558       C  0.74542564  0.98788508  0.29460796     0.19100
C1559       C  0.76084278  0.01967116  0.30392719    -0.17500
C1560       C  0.77380105  0.04614707  0.28809811    -0.19700
C1561       C  0.77152323  0.04126878  0.26269099     0.20600
C1562       C  0.78363408  0.06778998  0.24679847    -0.32700
C1563       C  0.78123354  0.06320695  0.22127334     0.01200
C1564       C  0.76666899  0.03129992  0.21176906    -0.24100
C1565       C  0.71332759  0.92399415  0.27589844    -0.28600
C1566       C  0.71386939  0.92942000  0.30126802     0.06900
C1567       C  0.73076580  0.96138507  0.31039232    -0.27300
H1568       H  0.71437434  0.92148035  0.22659218     0.11600
H1569       H  0.73733342  0.96806509  0.19875564     0.12800
H1570       H  0.76243621  0.02405806  0.32348552     0.11800
H1571       H  0.78527158  0.07046744  0.29574046     0.11100
H1572       H  0.79496303  0.09212818  0.25441834     0.16500
H1573       H  0.76480256  0.02740038  0.19214450     0.12400
H1574       H  0.70003860  0.89941692  0.26876200     0.15200
H1575       H  0.73139080  0.96569570  0.32994323     0.15000
C1576       C  0.97342396  0.23216427  0.30917285    -0.17900
C1577       C  0.94721881  0.21913816  0.29291557    -0.20000
C1578       C  0.95230085  0.22021527  0.26757477     0.20600
C1579       C  0.98409055  0.23368644  0.25857923    -0.02900
C1580       C  0.01060380  0.24668996  0.27503412    -0.06000
C1581       C  0.00517829  0.24639398  0.30038753     0.20900
C1582       C  0.04252550  0.26089699  0.26608444     0.19100
C1583       C  0.04747062  0.26116054  0.24075283    -0.17500
C1584       C  0.02120850  0.24830573  0.22445335    -0.19700
C1585       C  0.98945564  0.23490714  0.23314688     0.20600
C1586       C  0.96307360  0.22326392  0.21686223    -0.32700
C1587       C  0.93128360  0.21042559  0.22563718     0.01200
C1588       C  0.92619256  0.20861679  0.25110828    -0.24100
C1589       C  0.03158320  0.26146862  0.31646876    -0.28600
C1590       C  0.06354527  0.27704871  0.30770716     0.06900
C1591       C  0.06886631  0.27572519  0.28252607    -0.27300
H1592       H  0.96887206  0.23164000  0.32862377     0.11600
H1593       H  0.92298215  0.20873121  0.30015804     0.12800
H1594       H  0.07172010  0.27186689  0.23349485     0.11800
H1595       H  0.02578937  0.24929932  0.20498390     0.11100
H1596       H  0.96738039  0.22454083  0.19733243     0.16500
H1597       H  0.90189953  0.19856220  0.25818562     0.12400
H1598       H  0.02723290  0.26213777  0.33586983     0.15200
H1599       H  0.09335947  0.28785104  0.27560413     0.15000
C1600       C  0.69896230  0.20000176  0.23402823    -0.17900
C1601       C  0.68332259  0.21535148  0.24428557    -0.20000
C1602       C  0.70077850  0.24848733  0.25031774     0.20600
C1603       C  0.73442967  0.26626306  0.24633215    -0.02900
C1604       C  0.75022142  0.25080451  0.23594843    -0.06000
C1605       C  0.73230515  0.21754211  0.22965204     0.20900
C1606       C  0.78376607  0.26877079  0.23136746     0.19100
C1607       C  0.80124739  0.30185625  0.23755702    -0.17500
C1608       C  0.78557802  0.31715866  0.24790228    -0.19700
C1609       C  0.75216405  0.29963826  0.25215464     0.20600
C1610       C  0.73601678  0.31515699  0.26134354    -0.32700
C1611       C  0.70223229  0.29789754  0.26443676     0.01200
C1612       C  0.68495896  0.26434926  0.25948195    -0.24100
C1613       C  0.74794992  0.20257104  0.21866438    -0.28600
C1614       C  0.78112147  0.22045791  0.21386086     0.06900
C1615       C  0.79903575  0.25341681  0.22026904    -0.27300
H1616       H  0.68490842  0.17447436  0.22926845     0.11600
H1617       H  0.65747268  0.20139037  0.24719993     0.12800
H1618       H  0.82698100  0.31597496  0.23416838     0.11800
H1619       H  0.79952191  0.34282446  0.25225172     0.11100
H1620       H  0.74968977  0.34099632  0.26515244     0.16500
H1621       H  0.65897666  0.25074361  0.26181173     0.12400
H1622       H  0.73428141  0.17718041  0.21336174     0.15200
H1623       H  0.82463887  0.26710884  0.21621481     0.15000
C1624       C  0.88289724  0.01398567  0.08745173    -0.17900
C1625       C  0.86675387  0.02997564  0.09545339    -0.20000
C1626       C  0.88388801  0.06355555  0.09989520     0.20600
C1627       C  0.91744338  0.08137789  0.09550596    -0.02900
C1628       C  0.93374744  0.06522813  0.08748336    -0.06000
C1629       C  0.91643112  0.03132056  0.08381818     0.20900
C1630       C  0.96752294  0.08281789  0.08405857     0.19100
C1631       C  0.98448176  0.11655086  0.08779260    -0.17500
C1632       C  0.96830766  0.13257873  0.09569074    -0.19700
C1633       C  0.93492451  0.11512447  0.10001193     0.20600
C1634       C  0.91897567  0.13061502  0.10964886    -0.32700
C1635       C  0.88580710  0.11276265  0.11511417     0.01200
C1636       C  0.86827274  0.07937865  0.10952921    -0.24100
C1637       C  0.93309586  0.01510831  0.07763742    -0.28600
C1638       C  0.96701151  0.03217805  0.07556438     0.06900
C1639       C  0.98392349  0.06620979  0.07801136    -0.27300
H1640       H  0.86926358  0.98792680  0.08466423     0.11600
H1641       H  0.84097233  0.01596037  0.09866974     0.12800
H1642       H  0.01038785  0.13044245  0.08514814     0.11800
H1643       H  0.98204940  0.15853240  0.09896757     0.11100
H1644       H  0.93270604  0.15637469  0.11375317     0.16500
H1645       H  0.84269434  0.06538147  0.11357690     0.12400
H1646       H  0.91966798  0.98891600  0.07561819     0.15200
H1647       H  0.00999703  0.07967303  0.07629257     0.15000
loop_ 
_geom_bond_atom_site_label_1 
_geom_bond_atom_site_label_2 
_geom_bond_distance 
_geom_bond_site_symmetry_2 
_ccdc_geom_bond_type 
Zn1           O5   1.975       .  S
Zn1           O6   2.048       .  S
Zn1          O10   2.046       .  S
Zn1          O17   2.004       .  S
Zn2           O5   1.963       .  S
Zn2           O7   2.010       .  S
Zn2           O9   2.014       .  S
Zn2          O13   2.032       .  S
Zn3           O5   1.961       .  S
Zn3           O8   2.028       .  S
Zn3          O11   2.013       .  S
Zn3          O14   2.036       .  S
Zn4           O5   1.963       .  S
Zn4          O12   2.027       .  S
Zn4          O15   2.021       .  S
Zn4          O16   2.022       .  S
O6           C18   1.276       .  A
O7           C19   1.274       .  A
O8           C20   1.276       .  A
O9           C18   1.275       .  A
O10          C20   1.277       .  A
O11          C19   1.274       .  A
O12          C21   1.275       .  A
O13          C22   1.274       .  A
O14          C21   1.275       .  A
O15          C22   1.275       .  A
O16          C23   1.274       .  A
O17          C23   1.272       .  A
C18        C1518   1.485       .  S
C19        C1635   1.481       .  S
C20        C1542   1.493       .  S
C21        C1587   1.492       .  S
C22        C1563   1.489       .  S
C23        C1614   1.461       .  S
C24        C1491   1.488       .  S
C24          N25   1.354       .  A
C24          N29   1.362       .  A
N25          C26   1.352       .  A
C26        C1590   1.486       .  S
C26          N27   1.362       .  A
N27          C28   1.369       .  A
C28         C253   1.483       .  S
C28          N29   1.368       .  A
C30        C1467   1.483       .  S
C30          N31   1.362       .  A
C30          N35   1.351       .  A
N31          C32   1.369       .  A
C32         C160   1.482       .  S
C32          N33   1.368       .  A
N33          C34   1.361       .  A
C34        C1566   1.480       .  S
C34          N35   1.351       .  A
C36        C1443   1.491       .  S
C36          N37   1.352   1_556  A
C36          N41   1.363       .  A
N37          C38   1.350   1_455  A
C38        C1539   1.487       .  S
C38          N39   1.363       .  A
N39          C40   1.371   1_655  A
C40         C308   1.485       .  S
C40          N41   1.370   1_554  A
C42        C1422   1.476       .  S
C42          N43   1.348   1_556  A
C42          N47   1.358       .  A
N43          C44   1.353   1_565  A
C44        C1515   1.490       .  S
C44          N45   1.365       .  A
N45          C46   1.371   1_545  A
C46         C312   1.482       .  S
C46          N47   1.367   1_554  A
Zn48         O52   1.977       .  S
Zn48         O53   2.015       .  S
Zn48         O57   2.058       .  S
Zn48         O64   2.050       .  S
Zn49         O52   1.965       .  S
Zn49         O54   2.033       .  S
Zn49         O56   2.029       .  S
Zn49         O60   2.026       .  S
Zn50         O52   1.963       .  S
Zn50         O55   2.011       .  S
Zn50         O58   2.020       .  S
Zn50         O61   2.013       .  S
Zn51         O52   1.961       .  S
Zn51         O59   2.013       .  S
Zn51         O62   2.025       .  S
Zn51         O63   2.016       .  S
O53          C65   1.273       .  A
O54          C66   1.276       .  A
O55          C67   1.275       .  A
O56          C65   1.274       .  A
O57          C67   1.278       .  A
O58          C66   1.273       .  A
O59          C68   1.274       .  A
O60          C69   1.275       .  A
O61          C68   1.273       .  A
O62          C69   1.273       .  A
O63          C70   1.275       .  A
O64          C70   1.277       .  A
C65        C1374   1.467       .  S
C66        C1299   1.489       .  S
C67        C1278   1.490       .  S
C68        C1398   1.482       .  S
C69        C1347   1.488       .  S
C70        C1323   1.490       .  S
Zn71         O75   1.966       .  S
Zn71         O76   1.998       .  S
Zn71         O80   2.025       .  S
Zn71         O87   2.032       .  S
Zn72         O75   1.963       .  S
Zn72         O77   2.024       .  S
Zn72         O79   2.020       .  S
Zn72         O83   2.029       .  S
Zn73         O75   1.969       .  S
Zn73         O78   2.034       .  S
Zn73         O81   2.051       .  S
Zn73         O84   2.017       .  S
Zn74         O75   1.967       .  S
Zn74         O82   2.016       .  S
Zn74         O85   2.042       .  S
Zn74         O86   2.039       .  S
O76          C88   1.271       .  A
O77          C89   1.275       .  A
O78          C90   1.277       .  A
O79          C88   1.273       .  A
O80          C90   1.274       .  A
O81          C89   1.276       .  A
O82          C91   1.275       .  A
O83          C92   1.276       .  A
O84          C91   1.276       .  A
O85          C92   1.276       .  A
O86          C93   1.277       .  A
O87          C93   1.274       .  A
C88        C1251   1.460       .  S
C89        C1203   1.493       .  S
C90        C1419   1.489       .  S
C91        C1155   1.482       .  S
C92        C1179   1.493       .  S
C93        C1227   1.493       .  S
C94        C1182   1.487       .  S
C94          N95   1.351       .  A
C94          N99   1.362       .  A
N95          C96   1.354       .  A
C96        C1326   1.488       .  S
C96          N97   1.365       .  A
N97          C98   1.369       .  A
C98         C294   1.487       .  S
C98          N99   1.370       .  A
C100       C1131   1.484       .  S
C100        N101   1.361       .  A
C100        N105   1.355       .  A
N101        C102   1.366       .  A
C102        C226   1.482       .  S
C102        N103   1.368       .  A
N103        C104   1.363       .  A
C104       C1206   1.489       .  S
C104        N105   1.355       .  A
C106       C1107   1.491       .  S
C106        N107   1.354   1_554  A
C106        N111   1.362       .  A
N107        C108   1.353       .  A
C108       C1230   1.482       .  S
C108        N109   1.363       .  A
N109        C110   1.368   1_556  A
C110        C265   1.485       .  S
C110        N111   1.369       .  A
Zn112       O116   1.964       .  S
Zn112       O117   2.020       .  S
Zn112       O121   2.041       .  S
Zn112       O128   2.038   1_655  S
Zn113       O116   1.959       .  S
Zn113       O118   2.015       .  S
Zn113       O120   2.036       .  S
Zn113       O124   2.013   1_655  S
Zn114       O116   1.959       .  S
Zn114       O119   2.038       .  S
Zn114       O122   2.021       .  S
Zn114       O125   2.008   1_655  S
Zn115       O116   1.974   1_455  S
Zn115       O123   2.038       .  S
Zn115       O126   2.045       .  S
Zn115       O127   1.995       .  S
O117        C129   1.276       .  A
O118        C130   1.274       .  A
O119        C131   1.275       .  A
O120        C129   1.275       .  A
O121        C131   1.277       .  A
O122        C130   1.275       .  A
O123        C132   1.275       .  A
O124        C133   1.275       .  A
O125        C132   1.274       .  A
O126        C133   1.276       .  A
O127        C134   1.272       .  A
O128        C134   1.275       .  A
C129       C1035   1.487       .  S
C130       C1086   1.483       .  S
C131       C1059   1.495       .  S
C132       C1011   1.487       .  S
C133       C1494   1.488       .  S
C134        C987   1.469       .  S
Zn135       O139   1.968       .  S
Zn135       O140   2.037       .  S
Zn135       O144   2.030       .  S
Zn135       O151   1.997       .  S
Zn136       O139   1.964       .  S
Zn136       O141   2.005       .  S
Zn136       O143   2.022       .  S
Zn136       O147   2.038       .  S
Zn137       O139   1.966       .  S
Zn137       O142   2.031       .  S
Zn137       O145   2.008       .  S
Zn137       O148   2.042       .  S
Zn138       O139   1.962       .  S
Zn138       O146   2.029       .  S
Zn138       O149   2.026       .  S
Zn138       O150   2.026       .  S
O140        C152   1.275       .  A
O141        C153   1.273       .  A
O142        C154   1.276       .  A
O143        C152   1.275       .  A
O144        C154   1.274       .  A
O145        C153   1.274       .  A
O146        C155   1.276       .  A
O147        C156   1.275       .  A
O148        C155   1.275       .  A
O149        C156   1.275       .  A
O150        C157   1.274       .  A
O151        C157   1.272       .  A
C152        C939   1.487       .  S
C153        C963   1.478       .  S
C154        C915   1.490       .  S
C155       C1110   1.492       .  S
C156        C891   1.491       .  S
C157        C870   1.462       .  S
C158        C918   1.482       .  S
C158        N159   1.362       .  A
C158        N163   1.353       .  A
N159        C160   1.368       .  A
C160        N161   1.367       .  A
N161        C162   1.361       .  A
C162       C1350   1.479       .  S
C162        N163   1.353       .  A
C164       C1014   1.474       .  S
C164        N165   1.350       .  A
C164        N169   1.357       .  A
N165        C166   1.353       .  A
C166        C942   1.486       .  S
C166        N167   1.365       .  A
N167        C168   1.370       .  A
C168        C259   1.480       .  S
C168        N169   1.365       .  A
Zn170       O174   1.959       .  S
Zn170       O175   2.017       .  S
Zn170       O179   2.024       .  S
Zn170       O186   2.014   1_545  S
Zn171       O174   1.966       .  S
Zn171       O176   2.050       .  S
Zn171       O178   2.022       .  S
Zn171       O182   2.033       .  S
Zn172       O174   1.960       .  S
Zn172       O177   2.013       .  S
Zn172       O180   2.020       .  S
Zn172       O183   2.018   1_545  S
Zn173       O174   1.968   1_565  S
Zn173       O181   2.005       .  S
Zn173       O184   2.019       .  S
Zn173       O185   2.050       .  S
O175        C187   1.275       .  A
O176        C188   1.277       .  A
O177        C189   1.273       .  A
O178        C187   1.276       .  A
O179        C189   1.274       .  A
O180        C188   1.274       .  A
O181        C190   1.272       .  A
O182        C191   1.277   1_545  A
O183        C190   1.273       .  A
O184        C191   1.274       .  A
O185        C192   1.276       .  A
O186        C192   1.274       .  A
C187        C771   1.484       .  S
C188       C1134   1.492       .  S
C189        C795   1.484       .  S
C190        C846   1.465       .  S
C191       C1470   1.487       .  S
C192        C819   1.491       .  S
Zn193       O197   1.963       .  S
Zn193       O198   2.029       .  S
Zn193       O202   2.023       .  S
Zn193       O209   2.029       .  S
Zn194       O197   1.971       .  S
Zn194       O199   2.041       .  S
Zn194       O201   2.008       .  S
Zn194       O205   2.050       .  S
Zn195       O197   1.964       .  S
Zn195       O200   2.037       .  S
Zn195       O203   2.014       .  S
Zn195       O206   2.009       .  S
Zn196       O197   1.961       .  S
Zn196       O204   2.015       .  S
Zn196       O207   2.028       .  S
Zn196       O208   2.033       .  S
O198        C210   1.274       .  A
O199        C211   1.277       .  A
O200        C212   1.274       .  A
O201        C210   1.273       .  A
O202        C212   1.275       .  A
O203        C211   1.275       .  A
O204        C213   1.274       .  A
O205        C214   1.276       .  A
O206        C213   1.274       .  A
O207        C214   1.276       .  A
O208        C215   1.275       .  A
O209        C215   1.276       .  A
C210        C654   1.467       .  S
C211        C678   1.488       .  S
C212       C1446   1.489       .  S
C213        C747   1.481       .  S
C214        C702   1.494       .  S
C215        C726   1.488       .  S
C216        C699   1.484       .  S
C216        N217   1.364       .  A
C216        N221   1.353       .  A
N217        C218   1.370       .  A
C218        C300   1.485       .  S
C218        N219   1.368       .  A
N219        C220   1.361       .  A
C220       C1275   1.486       .  S
C220        N221   1.353       .  A
C222       C1038   1.492       .  S
C222        N223   1.353       .  A
C222        N227   1.364       .  A
N223        C224   1.350       .  A
C224        C675   1.481       .  S
C224        N225   1.360       .  A
N225        C226   1.367       .  A
C226        N227   1.370       .  A
Zn228       O232   1.969       .  S
Zn228       O233   2.027       .  S
Zn228       O237   1.999       .  S
Zn228       O244   2.029       .  S
Zn229       O232   1.963       .  S
Zn229       O234   2.036       .  S
Zn229       O236   2.014       .  S
Zn229       O240   2.021       .  S
Zn230       O232   1.966       .  S
Zn230       O235   2.033       .  S
Zn230       O238   2.022       .  S
Zn230       O241   2.033       .  S
Zn231       O232   1.963       .  S
Zn231       O239   2.023       .  S
Zn231       O242   2.025       .  S
Zn231       O243   2.027       .  S
O233        C245   1.274       .  A
O234        C246   1.275       .  A
O235        C247   1.274       .  A
O236        C245   1.275       .  A
O237        C247   1.271       .  A
O238        C246   1.275       .  A
O239        C248   1.274       .  A
O240        C249   1.275       .  A
O241        C248   1.276       .  A
O242        C249   1.275       .  A
O243        C250   1.276       .  A
O244        C250   1.275       .  A
C245        C582   1.485       .  S
C246        C531   1.490       .  S
C247        C510   1.464       .  S
C248        C558   1.489       .  S
C249        C630   1.485       .  S
C250        C603   1.489       .  S
C251        C606   1.483       .  S
C251        N252   1.361       .  A
C251        N256   1.351       .  A
N252        C253   1.368       .  A
C253        N254   1.370       .  A
N254        C255   1.363       .  A
C255       C1302   1.486       .  S
C255        N256   1.352       .  A
C257        C822   1.477       .  S
C257        N258   1.359       .  A
C257        N262   1.349       .  A
N258        C259   1.368       .  A
C259        N260   1.368       .  A
N260        C261   1.363       .  A
C261        C579   1.480       .  S
C261        N262   1.353       .  A
C263        C555   1.478       .  S
C263        N264   1.360       .  A
C263        N268   1.351       .  A
N264        C265   1.367       .  A
C265        N266   1.370   1_554  A
N266        C267   1.365       .  A
C267        C723   1.488       .  S
C267        N268   1.354   1_556  A
Zn269       O273   1.972       .  S
Zn269       O274   2.040       .  S
Zn269       O278   2.044       .  S
Zn269       O285   2.023       .  S
Zn270       O273   1.963       .  S
Zn270       O275   1.999       .  S
Zn270       O277   2.020       .  S
Zn270       O281   2.035       .  S
Zn271       O273   1.962       .  S
Zn271       O276   2.032       .  S
Zn271       O279   2.030       .  S
Zn271       O282   2.018       .  S
Zn272       O273   1.966       .  S
Zn272       O280   2.044       .  S
Zn272       O283   2.026       .  S
Zn272       O284   2.006       .  S
O274        C286   1.277       .  A
O275        C287   1.272       .  A
O276        C288   1.276       .  A
O277        C286   1.273       .  A
O278        C288   1.276       .  A
O279        C287   1.274       .  A
O280        C289   1.276       .  A
O281        C290   1.275       .  A
O282        C289   1.275       .  A
O283        C290   1.275       .  A
O284        C291   1.274       .  A
O285        C291   1.276       .  A
C286        C390   1.489       .  S
C287        C483   1.467       .  S
C288        C438   1.493       .  S
C289        C414   1.491       .  S
C290        C363   1.490       .  S
C291        C462   1.481       .  S
C292       C1062   1.493       .  S
C292        N293   1.368       .  A
C292        N297   1.356       .  A
N293        C294   1.372       .  A
C294        N295   1.366       .  A
N295        C296   1.358       .  A
C296        C387   1.477       .  S
C296        N297   1.352       .  A
C298        C798   1.475       .  S
C298        N299   1.360       .  A
C298        N303   1.351       .  A
N299        C300   1.367       .  A
C300        N301   1.369       .  A
N301        C302   1.365       .  A
C302        C366   1.483       .  S
C302        N303   1.353       .  A
C304        C894   1.486       .  S
C304        N305   1.355   1_654  A
C304        N309   1.362       .  A
N305        C306   1.355       .  A
C306        C435   1.486       .  S
C306        N307   1.363       .  A
N307        C308   1.368   1_556  A
C308        N309   1.367   1_455  A
C310        C534   1.481       .  S
C310        N311   1.363       .  A
C310        N315   1.355   1_545  A
N311        C312   1.367   1_545  A
C312        N313   1.366   1_554  A
N313        C314   1.360       .  A
C314        C411   1.482       .  S
C314        N315   1.354   1_556  A
C316       C1638   1.483       .  S
C316        N317   1.357   1_655  A
C316        N321   1.354   1_545  A
N317        C318   1.361       .  A
C318        C507   1.486       .  S
C318        N319   1.362   1_545  A
N319        C320   1.360   1_455  A
C320        C867   1.479       .  S
C320        N321   1.355       .  A
C322       C1371   1.487       .  S
C322        N323   1.362       .  A
C322        N327   1.361       .  A
N323        C324   1.360       .  A
C324       C1083   1.485       .  S
C324        N325   1.356       .  A
N325        C326   1.356       .  A
C326        C774   1.485       .  S
C326        N327   1.359       .  A
C328       C1395   1.482       .  S
C328        N329   1.354       .  A
C328        N333   1.359       .  A
N329        C330   1.352       .  A
C330        C843   1.479       .  S
C330        N331   1.357       .  A
N331        C332   1.363       .  A
C332        C990   1.477       .  S
C332        N333   1.362       .  A
C334        C486   1.476       .  S
C334        N335   1.357   1_455  A
C334        N339   1.357   1_565  A
N335        C336   1.358       .  A
C336       C1158   1.484       .  S
C336        N337   1.360   1_565  A
N337        C338   1.360   1_655  A
C338        C651   1.482       .  S
C338        N339   1.360       .  A
C340        C459   1.482       .  S
C340        N341   1.358       .  A
C340        N345   1.358       .  A
N341        C342   1.358       .  A
C342       C1254   1.482       .  S
C342        N343   1.358       .  A
N343        C344   1.357       .  A
C344        C750   1.482       .  S
C344        N345   1.357       .  A
C346       C1611   1.482       .  S
C346        N347   1.357       .  A
C346        N351   1.360       .  A
N347        C348   1.356       .  A
C348        C966   1.481       .  S
C348        N349   1.357       .  A
N349        C350   1.358       .  A
C350        C627   1.485       .  S
C350        N351   1.360       .  A
C352        C353   1.398   1_545  A
C352        C357   1.403       .  A
C352        H368   1.084       .  S
C353        C354   1.403       .  A
C353        H369   1.084       .  S
C354        C364   1.403       .  A
C354        C355   1.412       .  A
C355        C361   1.411       .  A
C355        C356   1.415   1_565  A
C356        C358   1.414       .  A
C356        C357   1.410       .  A
C357        C365   1.400       .  A
C358        C367   1.411       .  A
C358        C359   1.404       .  A
C359        C360   1.403   1_545  A
C359        H370   1.083       .  S
C360        C361   1.405       .  A
C360        H371   1.083       .  S
C361        C362   1.408       .  A
C362        C363   1.411       .  A
C362        H372   1.084       .  S
C363        C364   1.408       .  A
C364        H373   1.084       .  S
C365        C366   1.408       .  A
C365        H374   1.085       .  S
C366        C367   1.407       .  A
C367        H375   1.084       .  S
C376        C377   1.398       .  A
C376        C381   1.403   1_655  A
C376        H392   1.084   1_655  S
C377        C378   1.403       .  A
C377        H393   1.084       .  S
C378        C388   1.401       .  A
C378        C379   1.411       .  A
C379        C385   1.414       .  A
C379        C380   1.414   1_655  A
C380        C382   1.410       .  A
C380        C381   1.412       .  A
C381        C389   1.404       .  A
C382        C391   1.407       .  A
C382        C383   1.405       .  A
C383        C384   1.402   1_455  A
C383        H394   1.083       .  S
C384        C385   1.404       .  A
C384        H395   1.083       .  S
C385        C386   1.409       .  A
C386        C387   1.406       .  A
C386        H396   1.084       .  S
C387        C388   1.405       .  A
C388        H397   1.085       .  S
C389        C390   1.408       .  A
C389        H398   1.084       .  S
C390        C391   1.411       .  A
C391        H399   1.084       .  S
C400        C401   1.397       .  A
C400        C405   1.403       .  A
C400        H416   1.084       .  S
C401        C402   1.403       .  A
C401        H417   1.084       .  S
C402        C412   1.400       .  A
C402        C403   1.411       .  A
C403        C409   1.413       .  A
C403        C404   1.415       .  A
C404        C406   1.411       .  A
C404        C405   1.411       .  A
C405        C413   1.401       .  A
C406        C415   1.411       .  A
C406        C407   1.406       .  A
C407        C408   1.404       .  A
C407        H418   1.083       .  S
C408        C409   1.405       .  A
C408        H419   1.083       .  S
C409        C410   1.412       .  A
C410        C411   1.408       .  A
C410        H420   1.084       .  S
C411        C412   1.405       .  A
C412        H421   1.085       .  S
C413        C414   1.408       .  A
C413        H422   1.084       .  S
C414        C415   1.412       .  A
C415        H423   1.084       .  S
C424        C425   1.398       .  A
C424        C429   1.403       .  A
C424        H440   1.084       .  S
C425        C426   1.403       .  A
C425        H441   1.084       .  S
C426        C436   1.401       .  A
C426        C427   1.410       .  A
C427        C433   1.414       .  A
C427        C428   1.416       .  A
C428        C430   1.411       .  A
C428        C429   1.411       .  A
C429        C437   1.403       .  A
C430        C439   1.411       .  A
C430        C431   1.406       .  A
C431        C432   1.404       .  A
C431        H442   1.083       .  S
C432        C433   1.405       .  A
C432        H443   1.083       .  S
C433        C434   1.413       .  A
C434        C435   1.408       .  A
C434        H444   1.084       .  S
C435        C436   1.407       .  A
C436        H445   1.085       .  S
C437        C438   1.408       .  A
C437        H446   1.084       .  S
C438        C439   1.413       .  A
C439        H447   1.084       .  S
C448        C449   1.398       .  A
C448        C453   1.403       .  A
C448        H464   1.084       .  S
C449        C450   1.403       .  A
C449        H465   1.084       .  S
C450        C460   1.402       .  A
C450        C451   1.411       .  A
C451        C457   1.410       .  A
C451        C452   1.410       .  A
C452        C454   1.412       .  A
C452        C453   1.410       .  A
C453        C461   1.401       .  A
C454        C463   1.402       .  A
C454        C455   1.403       .  A
C455        C456   1.398       .  A
C455        H466   1.084       .  S
C456        C457   1.403       .  A
C456        H467   1.084       .  S
C457        C458   1.401       .  A
C458        C459   1.408       .  A
C458        H468   1.084       .  S
C459        C460   1.408       .  A
C460        H469   1.084       .  S
C461        C462   1.408       .  A
C461        H470   1.084       .  S
C462        C463   1.407       .  A
C463        H471   1.084       .  S
C472        C473   1.401       .  A
C472        C477   1.405       .  A
C472        H488   1.083       .  S
C473        C474   1.404       .  A
C473        H489   1.083       .  S
C474        C484   1.407       .  A
C474        C475   1.413       .  A
C475        C481   1.411       .  A
C475        C476   1.411       .  A
C476        C478   1.411       .  A
C476        C477   1.412       .  A
C477        C485   1.406       .  A
C478        C487   1.398       .  A
C478        C479   1.402       .  A
C479        C480   1.396       .  A
C479        H490   1.084   1_455  S
C480        C481   1.402       .  A
C480        H491   1.084       .  S
C481        C482   1.397       .  A
C482        C483   1.402       .  A
C482        H492   1.085       .  S
C483        C484   1.404       .  A
C484        H493   1.084       .  S
C485        C486   1.407       .  A
C485        H494   1.084       .  S
C486        C487   1.405       .  A
C487        H495   1.084   1_455  S
C496        C497   1.397       .  A
C496        C501   1.402       .  A
C496        H512   1.084       .  S
C497        C498   1.403       .  A
C497        H513   1.084       .  S
C498        C508   1.400       .  A
C498        C499   1.410       .  A
C499        C505   1.411       .  A
C499        C500   1.412       .  A
C500        C502   1.412       .  A
C500        C501   1.413       .  A
C501        C509   1.401       .  A
C502        C511   1.405       .  A
C502        C503   1.404       .  A
C503        C504   1.400       .  A
C503        H514   1.084       .  S
C504        C505   1.404       .  A
C504        H515   1.083   1_545  S
C505        C506   1.405       .  A
C506        C507   1.409       .  A
C506        H516   1.084   1_545  S
C507        C508   1.408       .  A
C508        H517   1.084       .  S
C509        C510   1.400       .  A
C509        H518   1.085       .  S
C510        C511   1.404       .  A
C511        H519   1.084       .  S
C520        C521   1.404       .  A
C520        C525   1.405       .  A
C520        H536   1.083       .  S
C521        C522   1.406       .  A
C521        H537   1.083       .  S
C522        C532   1.410       .  A
C522        C523   1.411       .  A
C523        C529   1.411       .  A
C523        C524   1.415       .  A
C524        C526   1.410       .  A
C524        C525   1.414       .  A
C525        C533   1.412       .  A
C526        C535   1.399       .  A
C526        C527   1.403       .  A
C527        C528   1.396       .  A
C527        H538   1.084       .  S
C528        C529   1.402       .  A
C528        H539   1.084       .  S
C529        C530   1.401       .  A
C530        C531   1.407       .  A
C530        H540   1.084       .  S
C531        C532   1.412       .  A
C532        H541   1.084       .  S
C533        C534   1.408       .  A
C533        H542   1.084       .  S
C534        C535   1.406       .  A
C535        H543   1.085       .  S
C544        C545   1.402       .  A
C544        C549   1.405       .  A
C544        H560   1.083       .  S
C545        C546   1.404       .  A
C545        H561   1.083       .  S
C546        C556   1.410       .  A
C546        C547   1.414       .  A
C547        C553   1.410       .  A
C547        C548   1.414       .  A
C548        C550   1.412       .  A
C548        C549   1.410       .  A
C549        C557   1.406       .  A
C550        C559   1.404       .  A
C550        C551   1.403       .  A
C551        C552   1.398       .  A
C551        H562   1.084       .  S
C552        C553   1.403       .  A
C552        H563   1.084       .  S
C553        C554   1.400       .  A
C554        C555   1.406       .  A
C554        H564   1.085       .  S
C555        C556   1.405       .  A
C556        H565   1.084       .  S
C557        C558   1.411       .  A
C557        H566   1.084       .  S
C558        C559   1.408       .  A
C559        H567   1.084       .  S
C568        C569   1.394   1_545  A
C568        C573   1.401       .  A
C568        H584   1.084       .  S
C569        C570   1.402       .  A
C569        H585   1.084       .  S
C570        C580   1.394       .  A
C570        C571   1.409       .  A
C571        C577   1.414       .  A
C571        C572   1.413   1_565  A
C572        C574   1.411       .  A
C572        C573   1.412       .  A
C573        C581   1.397       .  A
C574        C583   1.410       .  A
C574        C575   1.406       .  A
C575        C576   1.404   1_545  A
C575        H586   1.083       .  S
C576        C577   1.405       .  A
C576        H587   1.083       .  S
C577        C578   1.413       .  A
C578        C579   1.408       .  A
C578        H588   1.084       .  S
C579        C580   1.406       .  A
C580        H589   1.085       .  S
C581        C582   1.405       .  A
C581        H590   1.084       .  S
C582        C583   1.412       .  A
C583        H591   1.084       .  S
C592        C593   1.397       .  A
C592        C597   1.403       .  A
C592        H608   1.084       .  S
C593        C594   1.403       .  A
C593        H609   1.084       .  S
C594        C604   1.402       .  A
C594        C595   1.412       .  A
C595        C601   1.410       .  A
C595        C596   1.414       .  A
C596        C598   1.414       .  A
C596        C597   1.409       .  A
C597        C605   1.398       .  A
C598        C607   1.411       .  A
C598        C599   1.404       .  A
C599        C600   1.402       .  A
C599        H610   1.083       .  S
C600        C601   1.405       .  A
C600        H611   1.083       .  S
C601        C602   1.407       .  A
C602        C603   1.411       .  A
C602        H612   1.084       .  S
C603        C604   1.408       .  A
C604        H613   1.084       .  S
C605        C606   1.408       .  A
C605        H614   1.085       .  S
C606        C607   1.407       .  A
C607        H615   1.084       .  S
C616        C617   1.399       .  A
C616        C621   1.404       .  A
C616        H632   1.083       .  S
C617        C618   1.403       .  A
C617        H633   1.084       .  S
C618        C628   1.404       .  A
C618        C619   1.412       .  A
C619        C625   1.410       .  A
C619        C620   1.412       .  A
C620        C622   1.411       .  A
C620        C621   1.411       .  A
C621        C629   1.404       .  A
C622        C631   1.403       .  A
C622        C623   1.403       .  A
C623        C624   1.398       .  A
C623        H634   1.084       .  S
C624        C625   1.403       .  A
C624        H635   1.084       .  S
C625        C626   1.401       .  A
C626        C627   1.409       .  A
C626        H636   1.084       .  S
C627        C628   1.408       .  A
C628        H637   1.084       .  S
C629        C630   1.409       .  A
C629        H638   1.084       .  S
C630        C631   1.408       .  A
C631        H639   1.084       .  S
C640        C641   1.396       .  A
C640        C645   1.402       .  A
C640        H656   1.084       .  S
C641        C642   1.403       .  A
C641        H657   1.084       .  S
C642        C652   1.399       .  A
C642        C643   1.411       .  A
C643        C649   1.411       .  A
C643        C644   1.411       .  A
C644        C646   1.413       .  A
C644        C645   1.412       .  A
C645        C653   1.398       .  A
C646        C655   1.407       .  A
C646        C647   1.404       .  A
C647        C648   1.401       .  A
C647        H658   1.083       .  S
C648        C649   1.405       .  A
C648        H659   1.083       .  S
C649        C650   1.406       .  A
C650        C651   1.409       .  A
C650        H660   1.084   1_455  S
C651        C652   1.407       .  A
C652        H661   1.084       .  S
C653        C654   1.401       .  A
C653        H662   1.085       .  S
C654        C655   1.405       .  A
C655        H663   1.084       .  S
C664        C665   1.397   1_455  A
C664        C669   1.403       .  A
C664        H680   1.084       .  S
C665        C666   1.403       .  A
C665        H681   1.084       .  S
C666        C676   1.398       .  A
C666        C667   1.410       .  A
C667        C673   1.414       .  A
C667        C668   1.414       .  A
C668        C670   1.411   1_655  A
C668        C669   1.411   1_655  A
C669        C677   1.401       .  A
C670        C679   1.408       .  A
C670        C671   1.405   1_455  A
C671        C672   1.403       .  A
C671        H682   1.083       .  S
C672        C673   1.404       .  A
C672        H683   1.083       .  S
C673        C674   1.411       .  A
C674        C675   1.407       .  A
C674        H684   1.084       .  S
C675        C676   1.407       .  A
C676        H685   1.085       .  S
C677        C678   1.408       .  A
C677        H686   1.084       .  S
C678        C679   1.410       .  A
C679        H687   1.084       .  S
C688        C689   1.405       .  A
C688        C693   1.407       .  A
C688        H704   1.083       .  S
C689        C690   1.406       .  A
C689        H705   1.083       .  S
C690        C700   1.415       .  A
C690        C691   1.414       .  A
C691        C697   1.410       .  A
C691        C692   1.416       .  A
C692        C694   1.411       .  A
C692        C693   1.411       .  A
C693        C701   1.413       .  A
C694        C703   1.402       .  A
C694        C695   1.403       .  A
C695        C696   1.396       .  A
C695        H706   1.084       .  S
C696        C697   1.403       .  A
C696        H707   1.084       .  S
C697        C698   1.399       .  A
C698        C699   1.406       .  A
C698        H708   1.085       .  S
C699        C700   1.408       .  A
C700        H709   1.084       .  S
C701        C702   1.413       .  A
C701        H710   1.084       .  S
C702        C703   1.408       .  A
C703        H711   1.084       .  S
C712        C713   1.403       .  A
C712        C717   1.406       .  A
C712        H728   1.083       .  S
C713        C714   1.405       .  A
C713        H729   1.083       .  S
C714        C724   1.413       .  A
C714        C715   1.414       .  A
C715        C721   1.409       .  A
C715        C716   1.415       .  A
C716        C718   1.412       .  A
C716        C717   1.410       .  A
C717        C725   1.409       .  A
C718        C727   1.403       .  A
C718        C719   1.402       .  A
C719        C720   1.397       .  A
C719        H730   1.084       .  S
C720        C721   1.404       .  A
C720        H731   1.084       .  S
C721        C722   1.399       .  A
C722        C723   1.410       .  A
C722        H732   1.084       .  S
C723        C724   1.408       .  A
C724        H733   1.084       .  S
C725        C726   1.411       .  A
C725        H734   1.084       .  S
C726        C727   1.407       .  A
C727        H735   1.084       .  S
C736        C737   1.399       .  A
C736        C741   1.403       .  A
C736        H752   1.084       .  S
C737        C738   1.403       .  A
C737        H753   1.084       .  S
C738        C748   1.402       .  A
C738        C739   1.411       .  A
C739        C745   1.411       .  A
C739        C740   1.411       .  A
C740        C742   1.411       .  A
C740        C741   1.411       .  A
C741        C749   1.402       .  A
C742        C751   1.401       .  A
C742        C743   1.403       .  A
C743        C744   1.398       .  A
C743        H754   1.084       .  S
C744        C745   1.403       .  A
C744        H755   1.084       .  S
C745        C746   1.401       .  A
C746        C747   1.407       .  A
C746        H756   1.084       .  S
C747        C748   1.408       .  A
C748        H757   1.084       .  S
C749        C750   1.408       .  A
C749        H758   1.084       .  S
C750        C751   1.408       .  A
C751        H759   1.084       .  S
C760        C761   1.397       .  A
C760        C765   1.403       .  A
C760        H776   1.084       .  S
C761        C762   1.403       .  A
C761        H777   1.084       .  S
C762        C772   1.402       .  A
C762        C763   1.411       .  A
C763        C769   1.411       .  A
C763        C764   1.412       .  A
C764        C766   1.412       .  A
C764        C765   1.410       .  A
C765        C773   1.400       .  A
C766        C775   1.405       .  A
C766        C767   1.404       .  A
C767        C768   1.400       .  A
C767        H778   1.084       .  S
C768        C769   1.404       .  A
C768        H779   1.083       .  S
C769        C770   1.404       .  A
C770        C771   1.409       .  A
C770        H780   1.084       .  S
C771        C772   1.407       .  A
C772        H781   1.084       .  S
C773        C774   1.409       .  A
C773        H782   1.084       .  S
C774        C775   1.408       .  A
C775        H783   1.084       .  S
C784        C785   1.397       .  A
C784        C789   1.403       .  A
C784        H800   1.084       .  S
C785        C786   1.403       .  A
C785        H801   1.084       .  S
C786        C796   1.401       .  A
C786        C787   1.412       .  A
C787        C793   1.411       .  A
C787        C788   1.413       .  A
C788        C790   1.414       .  A
C788        C789   1.410       .  A
C789        C797   1.400       .  A
C790        C799   1.409       .  A
C790        C791   1.404       .  A
C791        C792   1.402       .  A
C791        H802   1.083       .  S
C792        C793   1.405       .  A
C792        H803   1.083       .  S
C793        C794   1.406       .  A
C794        C795   1.409       .  A
C794        H804   1.084       .  S
C795        C796   1.407       .  A
C796        H805   1.084       .  S
C797        C798   1.405       .  A
C797        H806   1.085       .  S
C798        C799   1.405       .  A
C799        H807   1.084       .  S
C808        C809   1.404       .  A
C808        C813   1.405       .  A
C808        H824   1.083       .  S
C809        C810   1.406       .  A
C809        H825   1.083       .  S
C810        C820   1.411       .  A
C810        C811   1.412       .  A
C811        C817   1.411       .  A
C811        C812   1.415       .  A
C812        C814   1.411       .  A
C812        C813   1.413       .  A
C813        C821   1.411       .  A
C814        C823   1.400       .  A
C814        C815   1.402       .  A
C815        C816   1.397       .  A
C815        H826   1.084       .  S
C816        C817   1.403       .  A
C816        H827   1.084   1_565  S
C817        C818   1.401       .  A
C818        C819   1.409       .  A
C818        H828   1.084       .  S
C819        C820   1.411       .  A
C820        H829   1.084       .  S
C821        C822   1.407       .  A
C821        H830   1.084       .  S
C822        C823   1.405       .  A
C823        H831   1.085       .  S
C832        C833   1.397       .  A
C832        C837   1.402       .  A
C832        H848   1.084       .  S
C833        C834   1.403       .  A
C833        H849   1.084       .  S
C834        C844   1.397       .  A
C834        C835   1.409       .  A
C835        C841   1.413       .  A
C835        C836   1.410       .  A
C836        C838   1.412       .  A
C836        C837   1.413       .  A
C837        C845   1.400       .  A
C838        C847   1.403       .  A
C838        C839   1.403       .  A
C839        C840   1.400       .  A
C839        H850   1.084       .  S
C840        C841   1.404       .  A
C840        H851   1.083       .  S
C841        C842   1.405       .  A
C842        C843   1.406       .  A
C842        H852   1.084       .  S
C843        C844   1.408       .  A
C844        H853   1.084       .  S
C845        C846   1.402       .  A
C845        H854   1.085       .  S
C846        C847   1.403       .  A
C847        H855   1.084       .  S
C856        C857   1.396       .  A
C856        C861   1.402       .  A
C856        H872   1.084       .  S
C857        C858   1.403       .  A
C857        H873   1.084       .  S
C858        C868   1.397       .  A
C858        C859   1.410       .  A
C859        C865   1.413       .  A
C859        C860   1.410       .  A
C860        C862   1.412       .  A
C860        C861   1.413       .  A
C861        C869   1.398       .  A
C862        C871   1.404       .  A
C862        C863   1.404       .  A
C863        C864   1.400       .  A
C863        H874   1.084       .  S
C864        C865   1.404       .  A
C864        H875   1.083       .  S
C865        C866   1.406       .  A
C866        C867   1.406       .  A
C866        H876   1.084   1_655  S
C867        C868   1.408       .  A
C868        H877   1.084       .  S
C869        C870   1.401       .  A
C869        H878   1.085       .  S
C870        C871   1.403       .  A
C871        H879   1.084       .  S
C880        C881   1.403       .  A
C880        C885   1.405       .  A
C880        H896   1.083       .  S
C881        C882   1.406       .  A
C881        H897   1.083       .  S
C882        C892   1.409       .  A
C882        C883   1.411       .  A
C883        C889   1.412       .  A
C883        C884   1.415       .  A
C884        C886   1.410       .  A
C884        C885   1.413       .  A
C885        C893   1.412       .  A
C886        C895   1.401       .  A
C886        C887   1.403       .  A
C887        C888   1.398       .  A
C887        H898   1.084       .  S
C888        C889   1.403       .  A
C888        H899   1.084       .  S
C889        C890   1.403       .  A
C890        C891   1.408       .  A
C890        H900   1.084       .  S
C891        C892   1.411       .  A
C892        H901   1.084       .  S
C893        C894   1.408       .  A
C893        H902   1.084       .  S
C894        C895   1.407       .  A
C895        H903   1.085       .  S
C904        C905   1.397       .  A
C904        C909   1.403       .  A
C904        H920   1.084       .  S
C905        C906   1.403       .  A
C905        H921   1.084       .  S
C906        C916   1.403       .  A
C906        C907   1.412       .  A
C907        C913   1.410       .  A
C907        C908   1.415       .  A
C908        C910   1.414       .  A
C908        C909   1.410       .  A
C909        C917   1.400       .  A
C910        C919   1.411       .  A
C910        C911   1.405       .  A
C911        C912   1.403       .  A
C911        H922   1.083       .  S
C912        C913   1.406       .  A
C912        H923   1.083       .  S
C913        C914   1.409       .  A
C914        C915   1.412       .  A
C914        H924   1.084       .  S
C915        C916   1.408       .  A
C916        H925   1.084       .  S
C917        C918   1.407       .  A
C917        H926   1.085       .  S
C918        C919   1.407       .  A
C919        H927   1.084       .  S
C928        C929   1.396   1_455  A
C928        C933   1.403       .  A
C928        H944   1.084       .  S
C929        C930   1.402       .  A
C929        H945   1.084       .  S
C930        C940   1.401       .  A
C930        C931   1.412       .  A
C931        C937   1.411       .  A
C931        C932   1.415   1_655  A
C932        C934   1.414       .  A
C932        C933   1.409       .  A
C933        C941   1.397       .  A
C934        C943   1.414       .  A
C934        C935   1.405       .  A
C935        C936   1.404   1_455  A
C935        H946   1.083       .  S
C936        C937   1.406       .  A
C936        H947   1.083       .  S
C937        C938   1.410       .  A
C938        C939   1.411       .  A
C938        H948   1.084       .  S
C939        C940   1.406       .  A
C940        H949   1.084       .  S
C941        C942   1.408       .  A
C941        H950   1.085       .  S
C942        C943   1.408       .  A
C943        H951   1.084       .  S
C952        C953   1.396       .  A
C952        C957   1.403       .  A
C952        H968   1.084       .  S
C953        C954   1.402       .  A
C953        H969   1.084       .  S
C954        C964   1.399       .  A
C954        C955   1.411       .  A
C955        C961   1.411       .  A
C955        C956   1.409       .  A
C956        C958   1.411       .  A
C956        C957   1.411       .  A
C957        C965   1.399       .  A
C958        C967   1.401       .  A
C958        C959   1.404       .  A
C959        C960   1.398       .  A
C959        H970   1.084       .  S
C960        C961   1.403       .  A
C960        H971   1.084       .  S
C961        C962   1.401       .  A
C962        C963   1.408       .  A
C962        H972   1.084       .  S
C963        C964   1.406       .  A
C964        H973   1.084       .  S
C965        C966   1.407       .  A
C965        H974   1.084       .  S
C966        C967   1.409       .  A
C967        H975   1.084       .  S
C976        C977   1.395       .  A
C976        C981   1.402       .  A
C976        H992   1.084       .  S
C977        C978   1.402       .  A
C977        H993   1.084       .  S
C978        C988   1.396       .  A
C978        C979   1.411       .  A
C979        C985   1.414       .  A
C979        C980   1.411       .  A
C980        C982   1.411       .  A
C980        C981   1.412       .  A
C981        C989   1.398       .  A
C982        C991   1.406       .  A
C982        C983   1.405       .  A
C983        C984   1.402       .  A
C983        H994   1.083       .  S
C984        C985   1.405       .  A
C984        H995   1.083       .  S
C985        C986   1.408       .  A
C986        C987   1.405       .  A
C986        H996   1.084       .  S
C987        C988   1.402       .  A
C988        H997   1.085       .  S
C989        C990   1.405       .  A
C989        H998   1.084       .  S
C990        C991   1.408       .  A
C991        H999   1.084       .  S
C1000      C1001   1.403       .  A
C1000      C1005   1.405       .  A
C1000      H1016   1.083       .  S
C1001      C1002   1.406       .  A
C1001      H1017   1.083       .  S
C1002      C1012   1.410       .  A
C1002      C1003   1.412       .  A
C1003      C1009   1.410       .  A
C1003      C1004   1.413       .  A
C1004      C1006   1.411       .  A
C1004      C1005   1.413       .  A
C1005      C1013   1.410       .  A
C1006      C1015   1.397       .  A
C1006      C1007   1.402       .  A
C1007      C1008   1.395       .  A
C1007      H1018   1.084       .  S
C1008      C1009   1.402       .  A
C1008      H1019   1.084   1_455  S
C1009      C1010   1.398       .  A
C1010      C1011   1.407       .  A
C1010      H1020   1.084       .  S
C1011      C1012   1.411       .  A
C1012      H1021   1.084       .  S
C1013      C1014   1.407       .  A
C1013      H1022   1.084       .  S
C1014      C1015   1.403       .  A
C1015      H1023   1.085       .  S
C1024      C1025   1.405       .  A
C1024      C1029   1.406       .  A
C1024      H1040   1.083       .  S
C1025      C1026   1.407       .  A
C1025      H1041   1.083       .  S
C1026      C1036   1.412       .  A
C1026      C1027   1.411       .  A
C1027      C1033   1.412       .  A
C1027      C1028   1.415       .  A
C1028      C1030   1.408       .  A
C1028      C1029   1.414       .  A
C1029      C1037   1.415       .  A
C1030      C1039   1.396       .  A
C1030      C1031   1.403       .  A
C1031      C1032   1.394       .  A
C1031      H1042   1.084       .  S
C1032      C1033   1.401       .  A
C1032      H1043   1.084       .  S
C1033      C1034   1.398       .  A
C1034      C1035   1.405       .  A
C1034      H1044   1.084       .  S
C1035      C1036   1.412       .  A
C1036      H1045   1.084       .  S
C1037      C1038   1.411       .  A
C1037      H1046   1.084       .  S
C1038      C1039   1.410       .  A
C1039      H1047   1.084       .  S
C1048      C1049   1.398       .  A
C1048      C1053   1.404       .  A
C1048      H1064   1.084       .  S
C1049      C1050   1.403       .  A
C1049      H1065   1.084       .  S
C1050      C1060   1.404       .  A
C1050      C1051   1.412       .  A
C1051      C1057   1.410       .  A
C1051      C1052   1.417       .  A
C1052      C1054   1.414       .  A
C1052      C1053   1.409       .  A
C1053      C1061   1.400       .  A
C1054      C1063   1.416       .  A
C1054      C1055   1.406       .  A
C1055      C1056   1.405       .  A
C1055      H1066   1.083       .  S
C1056      C1057   1.406       .  A
C1056      H1067   1.083       .  S
C1057      C1058   1.412       .  A
C1058      C1059   1.413       .  A
C1058      H1068   1.084       .  S
C1059      C1060   1.408       .  A
C1060      H1069   1.084       .  S
C1061      C1062   1.410       .  A
C1061      H1070   1.084       .  S
C1062      C1063   1.410       .  A
C1063      H1071   1.084       .  S
C1072      C1073   1.400       .  A
C1072      C1077   1.404       .  A
C1072      H1088   1.083       .  S
C1073      C1074   1.404       .  A
C1073      H1089   1.084       .  S
C1074      C1084   1.406       .  A
C1074      C1075   1.412       .  A
C1075      C1081   1.410       .  A
C1075      C1076   1.412       .  A
C1076      C1078   1.411       .  A
C1076      C1077   1.411       .  A
C1077      C1085   1.404       .  A
C1078      C1087   1.401       .  A
C1078      C1079   1.403       .  A
C1079      C1080   1.397       .  A
C1079      H1090   1.084       .  S
C1080      C1081   1.403       .  A
C1080      H1091   1.084       .  S
C1081      C1082   1.399       .  A
C1082      C1083   1.409       .  A
C1082      H1092   1.084       .  S
C1083      C1084   1.408       .  A
C1084      H1093   1.084       .  S
C1085      C1086   1.409       .  A
C1085      H1094   1.084       .  S
C1086      C1087   1.407       .  A
C1087      H1095   1.084       .  S
C1096      C1097   1.396       .  A
C1096      C1101   1.402       .  A
C1096      H1112   1.084       .  S
C1097      C1098   1.403       .  A
C1097      H1113   1.084       .  S
C1098      C1108   1.399       .  A
C1098      C1099   1.409       .  A
C1099      C1105   1.413       .  A
C1099      C1100   1.416       .  A
C1100      C1102   1.411       .  A
C1100      C1101   1.411       .  A
C1101      C1109   1.401       .  A
C1102      C1111   1.412       .  A
C1102      C1103   1.406       .  A
C1103      C1104   1.405       .  A
C1103      H1114   1.083       .  S
C1104      C1105   1.406       .  A
C1104      H1115   1.083       .  S
C1105      C1106   1.414       .  A
C1106      C1107   1.411       .  A
C1106      H1116   1.084       .  S
C1107      C1108   1.409       .  A
C1108      H1117   1.084       .  S
C1109      C1110   1.407       .  A
C1109      H1118   1.084       .  S
C1110      C1111   1.413       .  A
C1111      H1119   1.084       .  S
C1120      C1121   1.397       .  A
C1120      C1125   1.403       .  A
C1120      H1136   1.084       .  S
C1121      C1122   1.403       .  A
C1121      H1137   1.084       .  S
C1122      C1132   1.400       .  A
C1122      C1123   1.410       .  A
C1123      C1129   1.413       .  A
C1123      C1124   1.415       .  A
C1124      C1126   1.411       .  A
C1124      C1125   1.411       .  A
C1125      C1133   1.403       .  A
C1126      C1135   1.410       .  A
C1126      C1127   1.406       .  A
C1127      C1128   1.403       .  A
C1127      H1138   1.083       .  S
C1128      C1129   1.405       .  A
C1128      H1139   1.083       .  S
C1129      C1130   1.411       .  A
C1130      C1131   1.408       .  A
C1130      H1140   1.084       .  S
C1131      C1132   1.408       .  A
C1132      H1141   1.085       .  S
C1133      C1134   1.409       .  A
C1133      H1142   1.084       .  S
C1134      C1135   1.411       .  A
C1135      H1143   1.084       .  S
C1144      C1145   1.398       .  A
C1144      C1149   1.403       .  A
C1144      H1160   1.084   1_565  S
C1145      C1146   1.403       .  A
C1145      H1161   1.084       .  S
C1146      C1156   1.402       .  A
C1146      C1147   1.411       .  A
C1147      C1153   1.411       .  A
C1147      C1148   1.411       .  A
C1148      C1150   1.410       .  A
C1148      C1149   1.411       .  A
C1149      C1157   1.402       .  A
C1150      C1159   1.402       .  A
C1150      C1151   1.404       .  A
C1151      C1152   1.398       .  A
C1151      H1162   1.084       .  S
C1152      C1153   1.403       .  A
C1152      H1163   1.084       .  S
C1153      C1154   1.402       .  A
C1154      C1155   1.408       .  A
C1154      H1164   1.084       .  S
C1155      C1156   1.408       .  A
C1156      H1165   1.084       .  S
C1157      C1158   1.408       .  A
C1157      H1166   1.084   1_565  S
C1158      C1159   1.409       .  A
C1159      H1167   1.084       .  S
C1168      C1169   1.403       .  A
C1168      C1173   1.405       .  A
C1168      H1184   1.083       .  S
C1169      C1170   1.406       .  A
C1169      H1185   1.083       .  S
C1170      C1180   1.410       .  A
C1170      C1171   1.411       .  A
C1171      C1177   1.412       .  A
C1171      C1172   1.416       .  A
C1172      C1174   1.410       .  A
C1172      C1173   1.414       .  A
C1173      C1181   1.413       .  A
C1174      C1183   1.402       .  A
C1174      C1175   1.404       .  A
C1175      C1176   1.398       .  A
C1175      H1186   1.084       .  S
C1176      C1177   1.403       .  A
C1176      H1187   1.084       .  S
C1177      C1178   1.404       .  A
C1178      C1179   1.409       .  A
C1178      H1188   1.084       .  S
C1179      C1180   1.412       .  A
C1180      H1189   1.084       .  S
C1181      C1182   1.408       .  A
C1181      H1190   1.084       .  S
C1182      C1183   1.409       .  A
C1183      H1191   1.085       .  S
C1192      C1193   1.397       .  A
C1192      C1197   1.403   1_565  A
C1192      H1208   1.084       .  S
C1193      C1194   1.403       .  A
C1193      H1209   1.084       .  S
C1194      C1204   1.403       .  A
C1194      C1195   1.411       .  A
C1195      C1201   1.411       .  A
C1195      C1196   1.416   1_565  A
C1196      C1198   1.413       .  A
C1196      C1197   1.410       .  A
C1197      C1205   1.400       .  A
C1198      C1207   1.414       .  A
C1198      C1199   1.405       .  A
C1199      C1200   1.404       .  A
C1199      H1210   1.083       .  S
C1200      C1201   1.406   1_545  A
C1200      H1211   1.083       .  S
C1201      C1202   1.412       .  A
C1202      C1203   1.412       .  A
C1202      H1212   1.084       .  S
C1203      C1204   1.409       .  A
C1204      H1213   1.084       .  S
C1205      C1206   1.408       .  A
C1205      H1214   1.084       .  S
C1206      C1207   1.409       .  A
C1207      H1215   1.084       .  S
C1216      C1217   1.404       .  A
C1216      C1221   1.405       .  A
C1216      H1232   1.083       .  S
C1217      C1218   1.406       .  A
C1217      H1233   1.083       .  S
C1218      C1228   1.410       .  A
C1218      C1219   1.410       .  A
C1219      C1225   1.412       .  A
C1219      C1220   1.416       .  A
C1220      C1222   1.410       .  A
C1220      C1221   1.414       .  A
C1221      C1229   1.413       .  A
C1222      C1231   1.401       .  A
C1222      C1223   1.403       .  A
C1223      C1224   1.398       .  A
C1223      H1234   1.084       .  S
C1224      C1225   1.403       .  A
C1224      H1235   1.084       .  S
C1225      C1226   1.404       .  A
C1226      C1227   1.408       .  A
C1226      H1236   1.084       .  S
C1227      C1228   1.412       .  A
C1228      H1237   1.084       .  S
C1229      C1230   1.407       .  A
C1229      H1238   1.084       .  S
C1230      C1231   1.407       .  A
C1231      H1239   1.085       .  S
C1240      C1241   1.397       .  A
C1240      C1245   1.403       .  A
C1240      H1256   1.084       .  S
C1241      C1242   1.402       .  A
C1241      H1257   1.084       .  S
C1242      C1252   1.399       .  A
C1242      C1243   1.412       .  A
C1243      C1249   1.413       .  A
C1243      C1244   1.410       .  A
C1244      C1246   1.411       .  A
C1244      C1245   1.411       .  A
C1245      C1253   1.400       .  A
C1246      C1255   1.402       .  A
C1246      C1247   1.404       .  A
C1247      C1248   1.399       .  A
C1247      H1258   1.084       .  S
C1248      C1249   1.403       .  A
C1248      H1259   1.084       .  S
C1249      C1250   1.403       .  A
C1250      C1251   1.402       .  A
C1250      H1260   1.085       .  S
C1251      C1252   1.400       .  A
C1252      H1261   1.085       .  S
C1253      C1254   1.408       .  A
C1253      H1262   1.084       .  S
C1254      C1255   1.408       .  A
C1255      H1263   1.084       .  S
C1264      C1265   1.405       .  A
C1264      C1269   1.406       .  A
C1264      H1280   1.083       .  S
C1265      C1266   1.406       .  A
C1265      H1281   1.083       .  S
C1266      C1276   1.413       .  A
C1266      C1267   1.413       .  A
C1267      C1273   1.410       .  A
C1267      C1268   1.415       .  A
C1268      C1270   1.411       .  A
C1268      C1269   1.411       .  A
C1269      C1277   1.412       .  A
C1270      C1279   1.400       .  A
C1270      C1271   1.403       .  A
C1271      C1272   1.396       .  A
C1271      H1282   1.084       .  S
C1272      C1273   1.403       .  A
C1272      H1283   1.084       .  S
C1273      C1274   1.398       .  A
C1274      C1275   1.407       .  A
C1274      H1284   1.085       .  S
C1275      C1276   1.409       .  A
C1276      H1285   1.084       .  S
C1277      C1278   1.411       .  A
C1277      H1286   1.084       .  S
C1278      C1279   1.408       .  A
C1279      H1287   1.084       .  S
C1288      C1289   1.397       .  A
C1288      C1293   1.403       .  A
C1288      H1304   1.084       .  S
C1289      C1290   1.402       .  A
C1289      H1305   1.084       .  S
C1290      C1300   1.402       .  A
C1290      C1291   1.413       .  A
C1291      C1297   1.410       .  A
C1291      C1292   1.415       .  A
C1292      C1294   1.414       .  A
C1292      C1293   1.408       .  A
C1293      C1301   1.398       .  A
C1294      C1303   1.413       .  A
C1294      C1295   1.405       .  A
C1295      C1296   1.403       .  A
C1295      H1306   1.083       .  S
C1296      C1297   1.406       .  A
C1296      H1307   1.083       .  S
C1297      C1298   1.408       .  A
C1298      C1299   1.412       .  A
C1298      H1308   1.084       .  S
C1299      C1300   1.407       .  A
C1300      H1309   1.084       .  S
C1301      C1302   1.409       .  A
C1301      H1310   1.085       .  S
C1302      C1303   1.408       .  A
C1303      H1311   1.084       .  S
C1312      C1313   1.404       .  A
C1312      C1317   1.405       .  A
C1312      H1328   1.083       .  S
C1313      C1314   1.406       .  A
C1313      H1329   1.083       .  S
C1314      C1324   1.411       .  A
C1314      C1315   1.411       .  A
C1315      C1321   1.411       .  A
C1315      C1316   1.415       .  A
C1316      C1318   1.409       .  A
C1316      C1317   1.414       .  A
C1317      C1325   1.413       .  A
C1318      C1327   1.398       .  A
C1318      C1319   1.403       .  A
C1319      C1320   1.396       .  A
C1319      H1330   1.084       .  S
C1320      C1321   1.403       .  A
C1320      H1331   1.084       .  S
C1321      C1322   1.401       .  A
C1322      C1323   1.408       .  A
C1322      H1332   1.084       .  S
C1323      C1324   1.412       .  A
C1324      H1333   1.084       .  S
C1325      C1326   1.409       .  A
C1325      H1334   1.084       .  S
C1326      C1327   1.409       .  A
C1327      H1335   1.084       .  S
C1336      C1337   1.396       .  A
C1336      C1341   1.402       .  A
C1336      H1352   1.084       .  S
C1337      C1338   1.402       .  A
C1337      H1353   1.084       .  S
C1338      C1348   1.401       .  A
C1338      C1339   1.412       .  A
C1339      C1345   1.411       .  A
C1339      C1340   1.414       .  A
C1340      C1342   1.414       .  A
C1340      C1341   1.410       .  A
C1341      C1349   1.398       .  A
C1342      C1351   1.411       .  A
C1342      C1343   1.405       .  A
C1343      C1344   1.403       .  A
C1343      H1354   1.083       .  S
C1344      C1345   1.406       .  A
C1344      H1355   1.083       .  S
C1345      C1346   1.409       .  A
C1346      C1347   1.412       .  A
C1346      H1356   1.084       .  S
C1347      C1348   1.406       .  A
C1348      H1357   1.084       .  S
C1349      C1350   1.405       .  A
C1349      H1358   1.085       .  S
C1350      C1351   1.407       .  A
C1351      H1359   1.084       .  S
C1360      C1361   1.400       .  A
C1360      C1365   1.403       .  A
C1360      H1376   1.084       .  S
C1361      C1362   1.404       .  A
C1361      H1377   1.084       .  S
C1362      C1372   1.404       .  A
C1362      C1363   1.411       .  A
C1363      C1369   1.411       .  A
C1363      C1364   1.412       .  A
C1364      C1366   1.413       .  A
C1364      C1365   1.412       .  A
C1365      C1373   1.404       .  A
C1366      C1375   1.404       .  A
C1366      C1367   1.403       .  A
C1367      C1368   1.399       .  A
C1367      H1378   1.084       .  S
C1368      C1369   1.404       .  A
C1368      H1379   1.084       .  S
C1369      C1370   1.403       .  A
C1370      C1371   1.409       .  A
C1370      H1380   1.084       .  S
C1371      C1372   1.409       .  A
C1372      H1381   1.084       .  S
C1373      C1374   1.403       .  A
C1373      H1382   1.085       .  S
C1374      C1375   1.402       .  A
C1375      H1383   1.084       .  S
C1384      C1385   1.401       .  A
C1384      C1389   1.405       .  A
C1384      H1400   1.083       .  S
C1385      C1386   1.404       .  A
C1385      H1401   1.084       .  S
C1386      C1396   1.407       .  A
C1386      C1387   1.412       .  A
C1387      C1393   1.409       .  A
C1387      C1388   1.411       .  A
C1388      C1390   1.411       .  A
C1388      C1389   1.410       .  A
C1389      C1397   1.405       .  A
C1390      C1399   1.398       .  A
C1390      C1391   1.402       .  A
C1391      C1392   1.395       .  A
C1391      H1402   1.084       .  S
C1392      C1393   1.402       .  A
C1392      H1403   1.084       .  S
C1393      C1394   1.396       .  A
C1394      C1395   1.408       .  A
C1394      H1404   1.084       .  S
C1395      C1396   1.408       .  A
C1396      H1405   1.084       .  S
C1397      C1398   1.410       .  A
C1397      H1406   1.084       .  S
C1398      C1399   1.406       .  A
C1399      H1407   1.084       .  S
C1408      C1409   1.397       .  A
C1408      C1413   1.403       .  A
C1408      H1424   1.084   1_565  S
C1409      C1410   1.403       .  A
C1409      H1425   1.084       .  S
C1410      C1420   1.403       .  A
C1410      C1411   1.412       .  A
C1411      C1417   1.410       .  A
C1411      C1412   1.414       .  A
C1412      C1414   1.414       .  A
C1412      C1413   1.410       .  A
C1413      C1421   1.399       .  A
C1414      C1423   1.411       .  A
C1414      C1415   1.404       .  A
C1415      C1416   1.403       .  A
C1415      H1426   1.083       .  S
C1416      C1417   1.406       .  A
C1416      H1427   1.083       .  S
C1417      C1418   1.408       .  A
C1418      C1419   1.412       .  A
C1418      H1428   1.084       .  S
C1419      C1420   1.407       .  A
C1420      H1429   1.084       .  S
C1421      C1422   1.405       .  A
C1421      H1430   1.085   1_565  S
C1422      C1423   1.406       .  A
C1423      H1431   1.084       .  S
C1432      C1433   1.406       .  A
C1432      C1437   1.407       .  A
C1432      H1448   1.083       .  S
C1433      C1434   1.406       .  A
C1433      H1449   1.083       .  S
C1434      C1444   1.416       .  A
C1434      C1435   1.414       .  A
C1435      C1441   1.408       .  A
C1435      C1436   1.415       .  A
C1436      C1438   1.412       .  A
C1436      C1437   1.411       .  A
C1437      C1445   1.412       .  A
C1438      C1447   1.399       .  A
C1438      C1439   1.401       .  A
C1439      C1440   1.395       .  A
C1439      H1450   1.084       .  S
C1440      C1441   1.402       .  A
C1440      H1451   1.084       .  S
C1441      C1442   1.395       .  A
C1442      C1443   1.410       .  A
C1442      H1452   1.084       .  S
C1443      C1444   1.410       .  A
C1444      H1453   1.084       .  S
C1445      C1446   1.413       .  A
C1445      H1454   1.084       .  S
C1446      C1447   1.405       .  A
C1447      H1455   1.084       .  S
C1456      C1457   1.397       .  A
C1456      C1461   1.402       .  A
C1456      H1472   1.084   1_565  S
C1457      C1458   1.403       .  A
C1457      H1473   1.084       .  S
C1458      C1468   1.398       .  A
C1458      C1459   1.409       .  A
C1459      C1465   1.414       .  A
C1459      C1460   1.414       .  A
C1460      C1462   1.410       .  A
C1460      C1461   1.413       .  A
C1461      C1469   1.403       .  A
C1462      C1471   1.407       .  A
C1462      C1463   1.405       .  A
C1463      C1464   1.402       .  A
C1463      H1474   1.083       .  S
C1464      C1465   1.404       .  A
C1464      H1475   1.083       .  S
C1465      C1466   1.412       .  A
C1466      C1467   1.407       .  A
C1466      H1476   1.084       .  S
C1467      C1468   1.408       .  A
C1468      H1477   1.085       .  S
C1469      C1470   1.407       .  A
C1469      H1478   1.084   1_565  S
C1470      C1471   1.411       .  A
C1471      H1479   1.084       .  S
C1480      C1481   1.405       .  A
C1480      C1485   1.406       .  A
C1480      H1496   1.083       .  S
C1481      C1482   1.406       .  A
C1481      H1497   1.083       .  S
C1482      C1492   1.414       .  A
C1482      C1483   1.413       .  A
C1483      C1489   1.409       .  A
C1483      C1484   1.414       .  A
C1484      C1486   1.411       .  A
C1484      C1485   1.411       .  A
C1485      C1493   1.412       .  A
C1486      C1495   1.398       .  A
C1486      C1487   1.402       .  A
C1487      C1488   1.394       .  A
C1487      H1498   1.084   1_455  S
C1488      C1489   1.402       .  A
C1488      H1499   1.084       .  S
C1489      C1490   1.396       .  A
C1490      C1491   1.408       .  A
C1490      H1500   1.084       .  S
C1491      C1492   1.410       .  A
C1492      H1501   1.084       .  S
C1493      C1494   1.412       .  A
C1493      H1502   1.084       .  S
C1494      C1495   1.406       .  A
C1495      H1503   1.084   1_455  S
C1504      C1505   1.395       .  A
C1504      C1509   1.401       .  A
C1504      H1520   1.084       .  S
C1505      C1506   1.403       .  A
C1505      H1521   1.084       .  S
C1506      C1516   1.395       .  A
C1506      C1507   1.408       .  A
C1507      C1513   1.414       .  A
C1507      C1508   1.415       .  A
C1508      C1510   1.411       .  A
C1508      C1509   1.412       .  A
C1509      C1517   1.399       .  A
C1510      C1519   1.412       .  A
C1510      C1511   1.407       .  A
C1511      C1512   1.406       .  A
C1511      H1522   1.083       .  S
C1512      C1513   1.406       .  A
C1512      H1523   1.083       .  S
C1513      C1514   1.416       .  A
C1514      C1515   1.410       .  A
C1514      H1524   1.084       .  S
C1515      C1516   1.409       .  A
C1516      H1525   1.084   1_545  S
C1517      C1518   1.405       .  A
C1517      H1526   1.085       .  S
C1518      C1519   1.411       .  A
C1519      H1527   1.084       .  S
C1528      C1529   1.397       .  A
C1528      C1533   1.403       .  A
C1528      H1544   1.084       .  S
C1529      C1530   1.403       .  A
C1529      H1545   1.084   1_655  S
C1530      C1540   1.399       .  A
C1530      C1531   1.409       .  A
C1531      C1537   1.414       .  A
C1531      C1532   1.416       .  A
C1532      C1534   1.411       .  A
C1532      C1533   1.412       .  A
C1533      C1541   1.403       .  A
C1534      C1543   1.411       .  A
C1534      C1535   1.406       .  A
C1535      C1536   1.404       .  A
C1535      H1546   1.083       .  S
C1536      C1537   1.405       .  A
C1536      H1547   1.083       .  S
C1537      C1538   1.414       .  A
C1538      C1539   1.408       .  A
C1538      H1548   1.084       .  S
C1539      C1540   1.409       .  A
C1540      H1549   1.085   1_655  S
C1541      C1542   1.408       .  A
C1541      H1550   1.084       .  S
C1542      C1543   1.412       .  A
C1543      H1551   1.084       .  S
C1552      C1553   1.404       .  A
C1552      C1557   1.405       .  A
C1552      H1568   1.083       .  S
C1553      C1554   1.406   1_565  A
C1553      H1569   1.083       .  S
C1554      C1564   1.410       .  A
C1554      C1555   1.411       .  A
C1555      C1561   1.412       .  A
C1555      C1556   1.414   1_545  A
C1556      C1558   1.409       .  A
C1556      C1557   1.414       .  A
C1557      C1565   1.412       .  A
C1558      C1567   1.397       .  A
C1558      C1559   1.402   1_565  A
C1559      C1560   1.396       .  A
C1559      H1570   1.084       .  S
C1560      C1561   1.402       .  A
C1560      H1571   1.084       .  S
C1561      C1562   1.400       .  A
C1562      C1563   1.407       .  A
C1562      H1572   1.084       .  S
C1563      C1564   1.412       .  A
C1564      H1573   1.084       .  S
C1565      C1566   1.407       .  A
C1565      H1574   1.084       .  S
C1566      C1567   1.406       .  A
C1567      H1575   1.085       .  S
C1576      C1577   1.399       .  A
C1576      C1581   1.404   1_655  A
C1576      H1592   1.084       .  S
C1577      C1578   1.404       .  A
C1577      H1593   1.084       .  S
C1578      C1588   1.405       .  A
C1578      C1579   1.412       .  A
C1579      C1585   1.410       .  A
C1579      C1580   1.416   1_655  A
C1580      C1582   1.414       .  A
C1580      C1581   1.409       .  A
C1581      C1589   1.402       .  A
C1582      C1591   1.411       .  A
C1582      C1583   1.404       .  A
C1583      C1584   1.402       .  A
C1583      H1594   1.083       .  S
C1584      C1585   1.405   1_455  A
C1584      H1595   1.083       .  S
C1585      C1586   1.408       .  A
C1586      C1587   1.411       .  A
C1586      H1596   1.084       .  S
C1587      C1588   1.409       .  A
C1588      H1597   1.084       .  S
C1589      C1590   1.409       .  A
C1589      H1598   1.085       .  S
C1590      C1591   1.407       .  A
C1591      H1599   1.084       .  S
C1600      C1601   1.397       .  A
C1600      C1605   1.402       .  A
C1600      H1616   1.084       .  S
C1601      C1602   1.403       .  A
C1601      H1617   1.084       .  S
C1602      C1612   1.401       .  A
C1602      C1603   1.412       .  A
C1603      C1609   1.410       .  A
C1603      C1604   1.410       .  A
C1604      C1606   1.413       .  A
C1604      C1605   1.412       .  A
C1605      C1613   1.400       .  A
C1606      C1615   1.403       .  A
C1606      C1607   1.403       .  A
C1607      C1608   1.399       .  A
C1607      H1618   1.084       .  S
C1608      C1609   1.404       .  A
C1608      H1619   1.084       .  S
C1609      C1610   1.401       .  A
C1610      C1611   1.410       .  A
C1610      H1620   1.084       .  S
C1611      C1612   1.407       .  A
C1612      H1621   1.084       .  S
C1613      C1614   1.400       .  A
C1613      H1622   1.085       .  S
C1614      C1615   1.402       .  A
C1615      H1623   1.085       .  S
C1624      C1625   1.398       .  A
C1624      C1629   1.403       .  A
C1624      H1640   1.084   1_545  S
C1625      C1626   1.403       .  A
C1625      H1641   1.084       .  S
C1626      C1636   1.401       .  A
C1626      C1627   1.411       .  A
C1627      C1633   1.411       .  A
C1627      C1628   1.410       .  A
C1628      C1630   1.412       .  A
C1628      C1629   1.410       .  A
C1629      C1637   1.400       .  A
C1630      C1639   1.403       .  A
C1630      C1631   1.403       .  A
C1631      C1632   1.399       .  A
C1631      H1642   1.084   1_655  S
C1632      C1633   1.403       .  A
C1632      H1643   1.084       .  S
C1633      C1634   1.402       .  A
C1634      C1635   1.408       .  A
C1634      H1644   1.084       .  S
C1635      C1636   1.407       .  A
C1636      H1645   1.084       .  S
C1637      C1638   1.409       .  A
C1637      H1646   1.084   1_545  S
C1638      C1639   1.407       .  A
C1639      H1647   1.084   1_655  S
