geometry optimzed in LAMMPS
_audit_creation_date              2020-11-30 
_audit_creation_method            'lammps2cif' 
_symmetry_space_group_name_H-M    'P1' 
_symmetry_Int_Tables_number       1 
_symmetry_cell_setting            triclinic 
loop_ 
_symmetry_equiv_pos_as_xyz 
  x,y,z 
_cell_length_a                    27.126330592243246 
_cell_length_b                    51.14464116801538 
_cell_length_c                    26.933347287722395 
_cell_angle_alpha                 90.28213792827788 
_cell_angle_beta                  89.98352817913522 
_cell_angle_gamma                 89.99130067676177 
loop_ 
_atom_site_label 
_atom_site_type_symbol 
_atom_site_fract_x 
_atom_site_fract_y 
_atom_site_fract_z 
_atom_site_charge 
O1          O  0.46002536  0.96114992  0.49745544    -0.73070
O2          O  0.45991532  0.03957871  0.49930474    -0.74050
O3          O  0.46022904  0.00054532  0.42417168    -0.62670
O4          O  0.45990971  0.00009123  0.07302419    -0.71080
O5          O  0.54180037  0.99999514  0.07305008    -0.70640
O6          O  0.54212908  0.00065122  0.42429048    -0.61890
O7          O  0.54178697  0.03966942  0.99976044    -0.74400
O8          O  0.54190117  0.96114568  0.99741769    -0.73180
Cu9        Cu  0.45715833  0.00034681  0.49853182     1.04560
Cu10       Cu  0.54477531  0.00038925  0.99867480     1.04330
C11         C  0.50094141  0.94879735  0.49673465     0.93120
C12         C  0.50080322  0.05198951  0.99971374     0.92260
C13         C  0.50122525  0.00052978  0.40083011     0.84410
C14         C  0.50084922  0.99992413  0.09645665     0.90680
O15         O  0.45983909  0.96064706  0.24895074    -0.73070
O16         O  0.46066084  0.03913850  0.24909471    -0.74050
O17         O  0.46003017  0.99979950  0.17438345    -0.62670
O18         O  0.46030212  0.00014197  0.32315604    -0.71080
O19         O  0.54220087  0.00004968  0.32300938    -0.70640
O20         O  0.54192018  0.99960380  0.17414770    -0.61890
O21         O  0.54253894  0.03902806  0.24848200    -0.74400
O22         O  0.54170668  0.96049772  0.24856856    -0.73180
Cu23       Cu  0.45734921  0.99992813  0.24886143     1.04560
Cu24       Cu  0.54496545  0.99976835  0.24853525     1.04330
C25         C  0.50069411  0.94821656  0.24887858     0.93120
C26         C  0.50166315  0.05142473  0.24898721     0.92260
C27         C  0.50091750  0.99973750  0.15084524     0.84410
C28         C  0.50127070  0.00025117  0.34648421     0.90680
N29         N  0.42418315  0.21429541  0.49844948    -0.27420
N30         N  0.39990769  0.19196540  0.49505645    -0.35280
C31         C  0.35132964  0.19705448  0.49338333     0.00920
C32         C  0.34467486  0.22389267  0.49544932     0.06950
C33         C  0.39176212  0.23416254  0.49927531    -0.06150
H34         H  0.32286023  0.18227629  0.49131888     0.07610
H35         H  0.40201060  0.25439903  0.50438735     0.08810
Cu36       Cu  0.43374462  0.15559913  0.49524195     0.44170
Cu37       Cu  0.50012702  0.21688535  0.50262465     0.41990
Cu38       Cu  0.56685503  0.15566861  0.50461010     0.43880
N39         N  0.47611660  0.12188053  0.49826683    -0.34810
N40         N  0.52475175  0.12193320  0.50157392    -0.29060
C41         C  0.54101672  0.09710146  0.50261099    -0.05160
C42         C  0.50064874  0.08066575  0.49997901     0.07060
C43         C  0.46010519  0.09699488  0.49728749     0.00850
H44         H  0.57937554  0.09146574  0.50514044     0.08500
H45         H  0.42181144  0.09124382  0.49465221     0.07580
N46         N  0.60054021  0.19198663  0.50590965    -0.36250
N47         N  0.57615210  0.21434044  0.50493499    -0.28430
C48         C  0.60854197  0.23421484  0.50437281    -0.03670
C49         C  0.65569196  0.22387639  0.50570016     0.04940
C50         C  0.64913884  0.19704023  0.50615236     0.03030
H51         H  0.59821954  0.25453491  0.50113222     0.08140
H52         H  0.67765779  0.18224799  0.50617323     0.06970
N53         N  0.57395125  0.21445854  0.25064755    -0.27420
N54         N  0.59873600  0.19235651  0.24590673    -0.35280
C55         C  0.64715285  0.19777356  0.24443144     0.00920
C56         C  0.65353174  0.22462142  0.24853053     0.06950
C57         C  0.60600680  0.23447705  0.25292468    -0.06150
H58         H  0.67572321  0.18312554  0.24084708     0.07610
H59         H  0.59492424  0.25448354  0.25896661     0.08810
Cu60       Cu  0.56640473  0.15561508  0.24468244     0.44170
Cu61       Cu  0.49767346  0.21662447  0.25365405     0.41990
Cu62       Cu  0.43438566  0.15460427  0.25934885     0.43880
N63         N  0.52541649  0.12145554  0.24845162    -0.34810
N64         N  0.47698520  0.12121120  0.25386076    -0.29060
C65         C  0.46118562  0.09631809  0.25462671    -0.05160
C66         C  0.50165636  0.08011455  0.24969872     0.07060
C67         C  0.54182796  0.09665291  0.24595868     0.00850
H68         H  0.42305792  0.09048235  0.25860137     0.08500
H69         H  0.58008163  0.09110674  0.24160078     0.07580
N70         N  0.39862732  0.19026684  0.25778888    -0.36250
N71         N  0.42155398  0.21297398  0.25458069    -0.28430
C72         C  0.38772144  0.23212348  0.25189732    -0.03670
C73         C  0.34120387  0.22091816  0.25312437     0.04940
C74         C  0.34970816  0.19433176  0.25765345     0.03030
H75         H  0.39634268  0.25270431  0.24875163     0.08140
H76         H  0.32280519  0.17894969  0.26168675     0.06970
N77         N  0.57675376  0.78638442  0.50472346    -0.27420
N78         N  0.60013832  0.80887303  0.49926095    -0.35280
C79         C  0.64895784  0.80452519  0.49823548     0.00920
C80         C  0.65717112  0.77803576  0.50408813     0.06950
C81         C  0.61046277  0.76708384  0.50743176    -0.06150
H82         H  0.67612206  0.81957720  0.49184103     0.07610
H83         H  0.60167806  0.74655930  0.51129270     0.08810
Cu84       Cu  0.56604115  0.84487471  0.49342703     0.44170
Cu85       Cu  0.49993386  0.78321003  0.50650424     0.41990
Cu86       Cu  0.43464501  0.84509077  0.49165209     0.43880
N87         N  0.52491973  0.87888740  0.49260452    -0.34810
N88         N  0.47623387  0.87897285  0.49199175    -0.29060
C89         C  0.46016797  0.90383602  0.49325922    -0.05160
C90         C  0.50082406  0.92012667  0.49478255     0.07060
C91         C  0.54128651  0.90368963  0.49423509     0.00850
H92         H  0.42178286  0.90958538  0.49351004     0.08500
H93         H  0.57972675  0.90929374  0.49544042     0.07580
N94         N  0.40010010  0.80917657  0.49727710    -0.36250
N95         N  0.42318846  0.78667650  0.50370009    -0.28430
C96         C  0.38926312  0.76750943  0.50664860    -0.03670
C97         C  0.34264993  0.77851917  0.50234505     0.04940
C98         C  0.35125100  0.80494461  0.49570873     0.03030
H99         H  0.39785048  0.74701780  0.51145293     0.08140
H100        H  0.32444358  0.82005351  0.48849522     0.06970
N101        N  0.57669961  0.78584406  0.24459913    -0.27420
N102        N  0.60103148  0.80818917  0.24267798    -0.35280
C103        C  0.64964128  0.80311973  0.24190149     0.00920
C104        C  0.65625970  0.77627502  0.24304205     0.06950
C105        C  0.60911252  0.76597410  0.24533271    -0.06150
H106        H  0.67814131  0.81791136  0.24127234     0.07610
H107        H  0.59881645  0.74570526  0.24952693     0.08810
Cu108      Cu  0.56709049  0.84450368  0.24402577     0.44170
Cu109      Cu  0.50070494  0.78333363  0.24795622     0.41990
Cu110      Cu  0.43393845  0.84451182  0.25591862     0.43880
N111        N  0.52477770  0.87821938  0.24771581    -0.34810
N112        N  0.47619902  0.87825616  0.25191484    -0.29060
C113        C  0.46012125  0.90314217  0.25285659    -0.05160
C114        C  0.50055555  0.91949407  0.24923705     0.07060
C115        C  0.54092254  0.90306333  0.24610571     0.00850
H116        H  0.42185303  0.90887816  0.25602420     0.08500
H117        H  0.57920447  0.90871562  0.24272291     0.07580
N118        N  0.40033592  0.80806801  0.25615052    -0.36250
N119        N  0.42475527  0.78579565  0.25240010    -0.28430
C120        C  0.39247274  0.76587483  0.25119321    -0.03670
C121        C  0.34528015  0.77602279  0.25517876     0.04940
C122        C  0.35179575  0.80287565  0.25775950     0.03030
H123        H  0.40292838  0.74570820  0.24558856     0.08140
H124        H  0.32324236  0.81760767  0.25999393     0.06970
N125        N  0.92334419  0.71359746  0.49525782    -0.27420
N126        N  0.89997491  0.69110400  0.50071326    -0.35280
C127        C  0.85115269  0.69544267  0.50175039     0.00920
C128        C  0.84292102  0.72193151  0.49591352     0.06950
C129        C  0.88962209  0.73289224  0.49256532    -0.06150
H130        H  0.82400018  0.68038473  0.50814416     0.07610
H131        H  0.89839293  0.75341898  0.48871402     0.08810
Cu132      Cu  0.93409856  0.65510921  0.50653060     0.44170
Cu133      Cu  0.00016291  0.71678458  0.49347356     0.41990
Cu134      Cu  0.06549269  0.65491113  0.50832090     0.43880
N135        N  0.97523676  0.62110280  0.50735176    -0.34810
N136        N  0.02392251  0.62102235  0.50797116    -0.29060
C137        C  0.03999750  0.59616046  0.50670450    -0.05160
C138        C  0.99934656  0.57986609  0.50517486     0.07060
C139        C  0.95887900  0.59629935  0.50571773     0.00850
H140        H  0.07838449  0.59041461  0.50645999     0.08500
H141        H  0.92044069  0.59069171  0.50450858     0.07580
N142        N  0.10001257  0.69083254  0.50269909    -0.36250
N143        N  0.07691110  0.71332915  0.49627799    -0.28430
C144        C  0.11082603  0.73250145  0.49332608    -0.03670
C145        C  0.15744547  0.72149858  0.49762444     0.04940
C146        C  0.14885947  0.69507203  0.50426203     0.03030
H147        H  0.10222747  0.75299163  0.48851997     0.08140
H148        H  0.17567726  0.67996720  0.51146838     0.06970
N149        N  0.92440208  0.71422666  0.25535856    -0.27420
N150        N  0.90003085  0.69189489  0.25728950    -0.35280
C151        C  0.85143042  0.69698570  0.25804285     0.00920
C152        C  0.84485653  0.72383250  0.25687491     0.06950
C153        C  0.89202250  0.73411226  0.25459646    -0.06150
H154        H  0.82290682  0.68220681  0.25867161     0.07610
H155        H  0.90235266  0.75437562  0.25039121     0.08810
Cu156      Cu  0.93391879  0.65557242  0.25597246     0.44170
Cu157      Cu  0.00040438  0.71667319  0.25201554     0.41990
Cu158      Cu  0.06707408  0.65542858  0.24409390     0.43880
N159        N  0.97610959  0.62182010  0.25229257    -0.34810
N160        N  0.02468847  0.62172317  0.24809879    -0.29060
C161        C  0.04065084  0.59681462  0.24715223    -0.05160
C162        C  0.00013579  0.58051594  0.25076288     0.07060
C163        C  0.95984927  0.59699916  0.25389459     0.00850
H164        H  0.07889158  0.59102754  0.24398275     0.08500
H165        H  0.92153968  0.59139792  0.25726722     0.07580
N166        N  0.10072973  0.69186348  0.24383799    -0.36250
N167        N  0.07634731  0.71414867  0.24757519    -0.28430
C168        C  0.10866096  0.73405457  0.24876047    -0.03670
C169        C  0.15583619  0.72388659  0.24476913     0.04940
C170        C  0.14927892  0.69703541  0.24221377     0.03030
H171        H  0.09823553  0.75422618  0.25435449     0.08140
H172        H  0.17780994  0.68229114  0.23998164     0.06970
N173        N  0.07590951  0.28569300  0.50155539    -0.27420
N174        N  0.10019763  0.30801950  0.50493303    -0.35280
C175        C  0.14877384  0.30292319  0.50658127     0.00920
C176        C  0.15541371  0.27608376  0.50451330     0.06950
C177        C  0.10831897  0.26582098  0.50071324    -0.06150
H178        H  0.17725192  0.31769721  0.50863010     0.07610
H179        H  0.09805545  0.24558638  0.49560712     0.08810
Cu180      Cu  0.06637269  0.34438906  0.50475355     0.44170
Cu181      Cu  0.99996474  0.28311523  0.49742379     0.41990
Cu182      Cu  0.93324870  0.34433325  0.49541765     0.43880
N183        N  0.02400771  0.37811031  0.50172466    -0.34810
N184        N  0.97537166  0.37806248  0.49842662    -0.29060
C185        C  0.95911589  0.40289577  0.49738475    -0.05160
C186        C  0.99949020  0.41932739  0.50000456     0.07060
C187        C  0.04002827  0.40299440  0.50269349     0.00850
H188        H  0.92075859  0.40853531  0.49486270     0.08500
H189        H  0.07832452  0.40874177  0.50532097     0.07580
N190        N  0.89955383  0.30801734  0.49416678    -0.36250
N191        N  0.92394191  0.28566383  0.49515290    -0.28430
C192        C  0.89155388  0.26578966  0.49574740    -0.03670
C193        C  0.84440351  0.27612701  0.49442755     0.04940
C194        C  0.85095477  0.30296332  0.49394741     0.03030
H195        H  0.90187998  0.24547084  0.49899974     0.08140
H196        H  0.82243496  0.31775508  0.49391858     0.06970
N197        N  0.07740516  0.28694535  0.24532781    -0.27420
N198        N  0.10040788  0.30962858  0.24208855    -0.35280
C199        C  0.14931227  0.30552138  0.24226496     0.00920
C200        C  0.15772879  0.27893138  0.24685886     0.06950
C201        C  0.11117517  0.26776621  0.24807336    -0.06150
H202        H  0.17626786  0.32087716  0.23822255     0.07610
H203        H  0.10248819  0.24719497  0.25125810     0.08810
Cu204      Cu  0.06475872  0.34531485  0.24047334     0.44170
Cu205      Cu  0.00126853  0.28339547  0.24622248     0.41990
Cu206      Cu  0.93271999  0.34449657  0.25514116     0.43880
N207        N  0.02233586  0.37876339  0.24599474    -0.34810
N208        N  0.97390342  0.37859848  0.25140840    -0.29060
C209        C  0.95764779  0.40343024  0.25393860    -0.05160
C210        C  0.99792538  0.41989998  0.25021903     0.07060
C211        C  0.03829081  0.40362779  0.24526335     0.00850
H212        H  0.91942967  0.40904267  0.25830785     0.08500
H213        H  0.07645495  0.40939738  0.24129423     0.07580
N214        N  0.90027294  0.30777722  0.25390377    -0.36250
N215        N  0.92499762  0.28565433  0.24918175    -0.28430
C216        C  0.89289009  0.26566085  0.24691140    -0.03670
C217        C  0.84539101  0.27554979  0.25130026     0.04940
C218        C  0.85183845  0.30239492  0.25537611     0.03030
H219        H  0.90392492  0.24564585  0.24088752     0.08140
H220        H  0.82330432  0.31706297  0.25895738     0.06970
O221        O  0.04014538  0.53884082  0.50250736    -0.73070
O222        O  0.04023703  0.46041050  0.50067089    -0.74050
O223        O  0.04024793  0.49992275  0.42694461    -0.62670
O224        O  0.03993111  0.49947587  0.07579784    -0.71080
O225        O  0.95803099  0.49938152  0.07567821    -0.70640
O226        O  0.95835731  0.50002930  0.42691907    -0.61890
O227        O  0.95836463  0.46035886  0.50021672    -0.74400
O228        O  0.95826277  0.53888102  0.50254329    -0.73180
Cu229      Cu  0.04300355  0.49964174  0.50143727     1.04560
Cu230      Cu  0.95538271  0.49963903  0.50129422     1.04330
C231        C  0.99923097  0.55119540  0.50322549     0.93120
C232        C  0.99934491  0.44803543  0.50026493     0.92260
C233        C  0.99930830  0.50009184  0.40351226     0.84410
C234        C  0.99893450  0.49949640  0.09913894     0.90680
O235        O  0.04060233  0.53928970  0.25102997    -0.73070
O236        O  0.03920343  0.46079660  0.25086088    -0.74050
O237        O  0.03985603  0.49980240  0.17681373    -0.62670
O238        O  0.04012623  0.50013371  0.32558460    -0.71080
O239        O  0.95823794  0.50047997  0.32582183    -0.70640
O240        O  0.95795828  0.50004481  0.17695870    -0.61890
O241        O  0.95732660  0.46106503  0.25147411    -0.74400
O242        O  0.95873597  0.53958796  0.25141131    -0.73180
Cu243      Cu  0.04280655  0.50000238  0.25110747     1.04560
Cu244      Cu  0.95519178  0.50032710  0.25143344     1.04330
C245        C  0.99982804  0.55179423  0.25110673     0.93120
C246        C  0.99811539  0.44858957  0.25095992     0.92260
C247        C  0.99888808  0.49977083  0.15348475     0.84410
C248        C  0.99923980  0.50027259  0.34912357     0.90680
C249        C  0.25959850  0.77298297  0.22413317    -0.20430
C250        C  0.29753359  0.76194248  0.25261356    -0.07000
C251        C  0.28827690  0.73856030  0.27896829     0.13870
C252        C  0.24153785  0.72690953  0.27577592    -0.20490
C253        C  0.20359950  0.73795304  0.24730291    -0.07010
C254        C  0.21285977  0.76133311  0.22094157     0.13860
C255        C  0.17472429  0.77371906  0.18782889    -0.23840
H256        H  0.26676343  0.79079995  0.20371776     0.15140
H257        H  0.23437242  0.70909324  0.29619311     0.15170
C258        C  0.32641582  0.72617610  0.31207896    -0.23790
H259        H  0.19028883  0.79029859  0.16647253     0.05390
H260        H  0.14407543  0.78172623  0.21037483     0.08610
H261        H  0.16053299  0.75911496  0.16075405     0.08610
H262        H  0.34059961  0.74078039  0.33915736     0.08590
H263        H  0.35707074  0.71817731  0.28952947     0.08590
H264        H  0.31085809  0.70959332  0.33343352     0.05370
C265        C  0.74028212  0.77237824  0.27795800    -0.20430
C266        C  0.70390369  0.76222481  0.24623131    -0.07000
C267        C  0.71443812  0.73963358  0.21758985     0.13870
C268        C  0.76085649  0.72774763  0.22191948    -0.20490
C269        C  0.79723134  0.73789791  0.25365335    -0.07010
C270        C  0.78670177  0.76049253  0.28228582     0.13860
C271        C  0.82309440  0.77164341  0.31900056    -0.23840
H272        H  0.73207315  0.78961603  0.30004030     0.15140
H273        H  0.76906465  0.71050901  0.19983903     0.15170
C274        C  0.67805217  0.72848531  0.18086479    -0.23790
H275        H  0.80665474  0.78772293  0.34140016     0.05390
H276        H  0.85528035  0.77992627  0.29929586     0.08610
H277        H  0.83532860  0.75617651  0.34503537     0.08610
H278        H  0.66581077  0.74395623  0.15484190     0.08590
H279        H  0.64587050  0.72019179  0.20055965     0.08590
H280        H  0.69450173  0.71241375  0.15845184     0.05370
C281        C  0.20842216  0.75921248  0.02486390    -0.20430
C282        C  0.20548656  0.73550391  0.49850631    -0.07000
C283        C  0.24783674  0.72625071  0.47304414     0.13870
C284        C  0.29170294  0.74082898  0.47510626    -0.20490
C285        C  0.29460350  0.76451899  0.50145134    -0.07010
C286        C  0.25228713  0.77379214  0.02692105     0.13860
C287        C  0.25310768  0.79836491  0.05805752    -0.23840
H288        H  0.17615197  0.76623345  0.04459004     0.15140
H289        H  0.32397312  0.73380807  0.45537990     0.15170
C290        C  0.24701095  0.70168371  0.44189074    -0.23790
H291        H  0.21832762  0.80093270  0.07927658     0.05390
H292        H  0.25693063  0.81574091  0.53407826     0.08610
H293        H  0.28387081  0.79754170  0.08518865     0.08610
H294        H  0.21623171  0.70250803  0.41477838     0.08590
H295        H  0.24320813  0.68430187  0.96586544     0.08590
H296        H  0.28177828  0.69912644  0.42064419     0.05370
C297        C  0.70912202  0.74158035  0.47296224    -0.20430
C298        C  0.70514843  0.76407591  0.50270470    -0.07000
C299        C  0.74668028  0.77255321  0.03040685     0.13870
C300        C  0.79100173  0.75843110  0.02703780    -0.20490
C301        C  0.79493578  0.73588369  0.49731434    -0.07010
C302        C  0.75344359  0.72745833  0.46959380     0.13860
C303        C  0.75591363  0.70437543  0.43464463    -0.23840
H304        H  0.67744255  0.73523887  0.45153902     0.15140
H305        H  0.82268282  0.76477416  0.04845712     0.15170
C306        C  0.74421071  0.79563646  0.06535531    -0.23790
H307        H  0.72158196  0.70232448  0.41249641     0.05390
H308        H  0.76056284  0.68606559  0.95571397     0.08610
H309        H  0.78703439  0.70685627  0.40829113     0.08610
H310        H  0.71309121  0.79315531  0.09171029     0.08590
H311        H  0.73954345  0.81393894  0.54432070     0.08590
H312        H  0.77854304  0.79768780  0.08750239     0.05370
C313        C  0.75671259  0.27455272  0.22886179    -0.20430
C314        C  0.79723102  0.26151591  0.24982316    -0.07000
C315        C  0.78969909  0.23652451  0.27103799     0.13870
C316        C  0.74217963  0.22564572  0.27103701    -0.20490
C317        C  0.70166644  0.23867638  0.25005750    -0.07010
C318        C  0.70919008  0.26367238  0.22886168     0.13860
C319        C  0.66808796  0.27914682  0.20553507    -0.23840
H320        H  0.76219563  0.29357606  0.21221868     0.15140
H321        H  0.73669712  0.20662341  0.28768478     0.15170
C322        C  0.83078669  0.22105021  0.29438983    -0.23790
H323        H  0.68220227  0.29646440  0.18527534     0.05390
H324        H  0.64304928  0.28665563  0.23479247     0.08610
H325        H  0.64743647  0.26684798  0.17867177     0.08610
H326        H  0.85146300  0.23336081  0.32121217     0.08590
H327        H  0.85580148  0.21350674  0.26514386     0.08590
H328        H  0.81665407  0.20375430  0.31470318     0.05370
C329        C  0.20956620  0.24130918  0.22176155    -0.20430
C330        C  0.20551596  0.26484274  0.24846191    -0.07000
C331        C  0.24602772  0.27352488  0.27733998     0.13870
C332        C  0.28931953  0.25850389  0.27831021    -0.20490
C333        C  0.29338073  0.23497675  0.25159002    -0.07010
C334        C  0.25285638  0.22628544  0.22273849     0.13860
C335        C  0.25508939  0.20183316  0.19134481    -0.23840
H336        H  0.17863274  0.23471862  0.19950789     0.15140
H337        H  0.32025166  0.26509577  0.30056446     0.15170
C338        C  0.24377626  0.29796345  0.30877309    -0.23790
H339        H  0.22179949  0.19963679  0.16776697     0.05390
H340        H  0.25659396  0.18432926  0.21527544     0.08610
H341        H  0.28769438  0.20245881  0.16644861     0.08610
H342        H  0.21113854  0.29733334  0.33362521     0.08590
H343        H  0.24231605  0.31548047  0.28487421     0.08590
H344        H  0.27703389  0.30013757  0.33240511     0.05370
C345        C  0.73947551  0.22826465  0.47053090    -0.20430
C346        C  0.70329810  0.23792832  0.50300090    -0.07000
C347        C  0.71406625  0.25997209  0.03310179     0.13870
C348        C  0.76058927  0.27178529  0.02958832    -0.20490
C349        C  0.79680003  0.26207330  0.49713487    -0.07010
C350        C  0.78600463  0.24007171  0.46703162     0.13860
C351        C  0.82227120  0.22955935  0.42962410    -0.23840
H352        H  0.73106066  0.21146931  0.44732499     0.15140
H353        H  0.76900734  0.28857911  0.05279705     0.15170
C354        C  0.67782359  0.27046362  0.07055358    -0.23790
H355        H  0.80560751  0.21405954  0.40600262     0.05390
H356        H  0.85429915  0.22073162  0.44871203     0.08610
H357        H  0.83477638  0.24560540  0.40507402     0.08610
H358        H  0.66537424  0.25440764  0.09510973     0.08590
H359        H  0.64575982  0.27928049  0.05150827     0.08590
H360        H  0.69449119  0.28596520  0.09416884     0.05370
C361        C  0.25940380  0.22753893  0.02745781    -0.20430
C362        C  0.29691554  0.23792388  0.49754668    -0.07000
C363        C  0.28730172  0.26068422  0.46947076     0.13870
C364        C  0.24064454  0.27244676  0.47247959    -0.20490
C365        C  0.20316566  0.26204580  0.50239899    -0.07010
C366        C  0.21274541  0.23930037  0.03046566     0.13860
C367        C  0.17504381  0.22778148  0.06517635    -0.23840
H368        H  0.26690602  0.21018695  0.04915553     0.15140
H369        H  0.23314322  0.28979805  0.45077963     0.15170
C370        C  0.32500045  0.27219642  0.43474814    -0.23790
H371        H  0.19060751  0.21140187  0.08701882     0.05390
H372        H  0.14363705  0.21969677  0.54388527     0.08610
H373        H  0.16191869  0.24293937  0.09171349     0.08610
H374        H  0.33812444  0.25703206  0.40822380     0.08590
H375        H  0.35640903  0.28028743  0.95603570     0.08590
H376        H  0.30943626  0.28857050  0.41288903     0.05370
O377        O  0.46001847  0.96118191  0.99745506    -0.73070
O378        O  0.45991472  0.03961082  0.99930502    -0.74050
O379        O  0.46022557  0.00057614  0.92417144    -0.62670
O380        O  0.45991362  0.00006062  0.57302393    -0.71080
O381        O  0.54180428  0.99996493  0.57305015    -0.70640
O382        O  0.54212562  0.00068137  0.92429090    -0.61890
O383        O  0.54178764  0.03963780  0.49976021    -0.74400
O384        O  0.54190795  0.96111374  0.49741746    -0.73180
Cu385      Cu  0.45715452  0.00037873  0.99853183     1.04560
Cu386      Cu  0.54477911  0.00035792  0.49867456     1.04330
C387        C  0.50093452  0.94882944  0.99673434     0.93120
C388        C  0.50080350  0.05195757  0.49971345     0.92260
C389        C  0.50122202  0.00055757  0.90083021     0.84410
C390        C  0.50085301  0.99989634  0.59645662     0.90680
O391        O  0.45983980  0.96064681  0.74897454    -0.73070
O392        O  0.46066091  0.03913816  0.74906943    -0.74050
O393        O  0.46003276  0.99978525  0.67438278    -0.62670
O394        O  0.46030030  0.00015566  0.82315535    -0.71080
O395        O  0.54219905  0.00006356  0.82301053    -0.70640
O396        O  0.54192278  0.99958986  0.67414882    -0.61890
O397        O  0.54253904  0.03902792  0.74845873    -0.74400
O398        O  0.54170740  0.96049773  0.74859419    -0.73180
Cu399      Cu  0.45734961  0.99992782  0.74886064     1.04560
Cu400      Cu  0.54496585  0.99976830  0.74853654     1.04330
C401        C  0.50069498  0.94821647  0.74890874     0.93120
C402        C  0.50166309  0.05142449  0.74895739     0.92260
C403        C  0.50092056  0.99971857  0.65084539     0.84410
C404        C  0.50126837  0.00026988  0.84648438     0.90680
N405        N  0.42415686  0.21432292  0.99846142    -0.27420
N406        N  0.39988714  0.19199148  0.99506165    -0.35280
C407        C  0.35130800  0.19707730  0.99338350     0.00920
C408        C  0.34464686  0.22391495  0.99545292     0.06950
C409        C  0.39173114  0.23418781  0.99928678    -0.06150
H410        H  0.32284231  0.18229733  0.99131289     0.07610
H411        H  0.40197423  0.25442478  0.00440331     0.08810
Cu412      Cu  0.43373472  0.15562827  0.99524401     0.44170
Cu413      Cu  0.50009951  0.21691733  0.00264173     0.41990
Cu414      Cu  0.56684600  0.15570429  0.00461069     0.43880
N415        N  0.47611269  0.12191204  0.99826763    -0.34810
N416        N  0.52474790  0.12196624  0.00157438    -0.29060
C417        C  0.54101511  0.09713472  0.00261113    -0.05160
C418        C  0.50064829  0.08069786  0.99997928     0.07060
C419        C  0.46010361  0.09702605  0.99728818     0.00850
H420        H  0.57937440  0.09149990  0.00514039     0.08500
H421        H  0.42181030  0.09127412  0.99465332     0.07580
N422        N  0.60052009  0.19202595  0.00590965    -0.36250
N423        N  0.57612516  0.21437782  0.00494219    -0.28430
C424        C  0.60850873  0.23425508  0.00437575    -0.03670
C425        C  0.65566210  0.22392070  0.00569218     0.04940
C426        C  0.64911721  0.19708388  0.00614320     0.03030
H427        H  0.59817932  0.25457432  0.00113900     0.08140
H428        H  0.67764081  0.18229413  0.00615645     0.06970
N429        N  0.57395297  0.21445819  0.75063928    -0.27420
N430        N  0.59873715  0.19235631  0.74589220    -0.35280
C431        C  0.64715408  0.19777320  0.74441684     0.00920
C432        C  0.65353352  0.22462073  0.74852218     0.06950
C433        C  0.60600901  0.23447638  0.75292028    -0.06150
H434        H  0.67572413  0.18312529  0.74082793     0.07610
H435        H  0.59492724  0.25448258  0.75896740     0.08810
Cu436      Cu  0.56640545  0.15561502  0.74465825     0.44170
Cu437      Cu  0.49767525  0.21662454  0.75364828     0.41990
Cu438      Cu  0.43438740  0.15460397  0.75932699     0.43880
N439        N  0.52541666  0.12145530  0.74841754    -0.34810
N440        N  0.47698542  0.12121097  0.75382700    -0.29060
C441        C  0.46118545  0.09631792  0.75459014    -0.05160
C442        C  0.50165589  0.08011435  0.74966016     0.07060
C443        C  0.54182776  0.09665266  0.74592177     0.00850
H444        H  0.42305807  0.09048220  0.75856809     0.08500
H445        H  0.58008170  0.09110644  0.74156662     0.07580
N446        N  0.39862938  0.19026669  0.75777935    -0.36250
N447        N  0.42155574  0.21297410  0.75457597    -0.28430
C448        C  0.38772287  0.23212364  0.75189729    -0.03670
C449        C  0.34120533  0.22091808  0.75312260     0.04940
C450        C  0.34971025  0.19433143  0.75764596     0.03030
H451        H  0.39634386  0.25270465  0.74875522     0.08140
H452        H  0.32280799  0.17894884  0.76167622     0.06970
N453        N  0.57678541  0.78642412  0.00472317    -0.27420
N454        N  0.60016175  0.80891499  0.99925986    -0.35280
C455        C  0.64898273  0.80457220  0.99822955     0.00920
C456        C  0.65720607  0.77808351  0.00407948     0.06950
C457        C  0.61050158  0.76712694  0.00742731    -0.06150
H458        H  0.67614051  0.81962715  0.99183205     0.07610
H459        H  0.60172442  0.74660147  0.01128683     0.08810
Cu460      Cu  0.56605052  0.84491221  0.99342723     0.44170
Cu461      Cu  0.49996611  0.78324286  0.00650631     0.41990
Cu462      Cu  0.43465563  0.84511884  0.99164596     0.43880
N463        N  0.52492101  0.87892127  0.99260329    -0.34810
N464        N  0.47623522  0.87900417  0.99198798    -0.29060
C465        C  0.46016498  0.90386665  0.99325550    -0.05160
C466        C  0.50081872  0.92015901  0.99478149     0.07060
C467        C  0.54128359  0.90372400  0.99423552     0.00850
H468        H  0.42177895  0.90961431  0.99350463     0.08500
H469        H  0.57972288  0.90932981  0.99544304     0.07580
N470        N  0.40012422  0.80920112  0.99727510    -0.36250
N471        N  0.42321925  0.78670321  0.00370191    -0.28430
C472        C  0.38929921  0.76753362  0.00665564    -0.03670
C473        C  0.34268286  0.77853959  0.00235194     0.04940
C474        C  0.35127641  0.80496518  0.99570924     0.03030
H475        H  0.39789224  0.74704298  0.01146462     0.08140
H476        H  0.32446439  0.82007159  0.98849404     0.06970
N477        N  0.57670004  0.78584403  0.74459923    -0.27420
N478        N  0.60103175  0.80818942  0.74268706    -0.35280
C479        C  0.64964162  0.80312025  0.74191033     0.00920
C480        C  0.65626038  0.77627545  0.74304140     0.06950
C481        C  0.60911324  0.76597408  0.74532660    -0.06150
H482        H  0.67814147  0.81791208  0.74128833     0.07610
H483        H  0.59881744  0.74570477  0.74951371     0.08810
Cu484      Cu  0.56709076  0.84450375  0.74404878     0.44170
Cu485      Cu  0.50070516  0.78333332  0.74795524     0.41990
Cu486      Cu  0.43393902  0.84451135  0.75593995     0.43880
N487        N  0.52477872  0.87821934  0.74774979    -0.34810
N488        N  0.47619998  0.87825602  0.75194801    -0.29060
C489        C  0.46012234  0.90314205  0.75289257    -0.05160
C490        C  0.50055683  0.91949402  0.74927570     0.07060
C491        C  0.54092374  0.90306331  0.74614303     0.00850
H492        H  0.42185380  0.90887798  0.75605660     0.08500
H493        H  0.57920545  0.90871562  0.74275784     0.07580
N494        N  0.40033636  0.80806745  0.75615971    -0.36250
N495        N  0.42475544  0.78579531  0.75240175    -0.28430
C496        C  0.39247266  0.76587465  0.75119036    -0.03670
C497        C  0.34528034  0.77602242  0.75518063     0.04940
C498        C  0.35179617  0.80287506  0.75776883     0.03030
H499        H  0.40292777  0.74570833  0.74558009     0.08140
H500        H  0.32324293  0.81760693  0.76000907     0.06970
N501        N  0.92337576  0.71363610  0.99525642    -0.27420
N502        N  0.89999894  0.69114490  0.00071350    -0.35280
C503        C  0.85117816  0.69548836  0.00174748     0.00920
C504        C  0.84295534  0.72197777  0.99590585     0.06950
C505        C  0.88966021  0.73293398  0.99255915    -0.06150
H506        H  0.82402031  0.68043315  0.00814148     0.07610
H507        H  0.89843813  0.75345966  0.98870458     0.08810
Cu508      Cu  0.93410948  0.65514584  0.00653243     0.44170
Cu509      Cu  0.00019517  0.71681677  0.99347453     0.41990
Cu510      Cu  0.06550440  0.65493889  0.00831903     0.43880
N511        N  0.97524003  0.62113587  0.00735147    -0.34810
N512        N  0.02392584  0.62105307  0.00796947    -0.29060
C513        C  0.03999691  0.59619055  0.00670233    -0.05160
C514        C  0.99934389  0.57989774  0.00517379     0.07060
C515        C  0.95887850  0.59633287  0.00571777     0.00850
H516        H  0.07838308  0.59044317  0.00645701     0.08500
H517        H  0.92043935  0.59072679  0.00450988     0.07580
N518        N  0.10003693  0.69085698  0.00270113    -0.36250
N519        N  0.07694198  0.71335556  0.99628171    -0.28430
C520        C  0.11086208  0.73252537  0.99333441    -0.03670
C521        C  0.15747839  0.72151894  0.99763432     0.04940
C522        C  0.14888503  0.69509268  0.00426734     0.03030
H523        H  0.10226913  0.75301640  0.98853088     0.08140
H524        H  0.17569831  0.67998553  0.01147316     0.06970
N525        N  0.92440202  0.71422651  0.75535728    -0.27420
N526        N  0.90003078  0.69189452  0.75727959    -0.35280
C527        C  0.85143031  0.69698517  0.75803266     0.00920
C528        C  0.84485630  0.72383207  0.75687352     0.06950
C529        C  0.89202231  0.73411216  0.75460067    -0.06150
H530        H  0.82290676  0.68220615  0.75865445     0.07610
H531        H  0.90235239  0.75437595  0.75040221     0.08810
Cu532      Cu  0.93391862  0.65557215  0.75594986     0.44170
Cu533      Cu  0.00040452  0.71667321  0.75201583     0.41990
Cu534      Cu  0.06707373  0.65542876  0.74407283     0.43880
N535        N  0.97610873  0.62181990  0.75225969    -0.34810
N536        N  0.02468766  0.62172305  0.74806656    -0.29060
C537        C  0.04064988  0.59681448  0.74711730    -0.05160
C538        C  0.00013464  0.58051574  0.75072551     0.07060
C539        C  0.95984821  0.59699895  0.75385859     0.00850
H540        H  0.07889091  0.59102744  0.74395117     0.08500
H541        H  0.92153884  0.59139769  0.75723358     0.07580
N542        N  0.10072961  0.69186374  0.74382847    -0.36250
N543        N  0.07634746  0.71414872  0.74757296    -0.28430
C544        C  0.10866134  0.73405448  0.74876256    -0.03670
C545        C  0.15583631  0.72388668  0.74476661     0.04940
C546        C  0.14927882  0.69703571  0.74220406     0.03030
H547        H  0.09823640  0.75422577  0.75436205     0.08140
H548        H  0.17780969  0.68229159  0.73996633     0.06970
N549        N  0.07588229  0.28571921  0.00156879    -0.27420
N550        N  0.10017581  0.30804425  0.00494313    -0.35280
C551        C  0.14875090  0.30294483  0.00658749     0.00920
C552        C  0.15538488  0.27610499  0.00451999     0.06950
C553        C  0.10828742  0.26584509  0.00072511    -0.06150
H554        H  0.17723239  0.31771716  0.00863229     0.07610
H555        H  0.09801907  0.24561109  0.99562047     0.08810
Cu556      Cu  0.06636213  0.34441695  0.00476182     0.44170
Cu557      Cu  0.99993634  0.28314596  0.99743793     0.41990
Cu558      Cu  0.93324024  0.34436852  0.99542217     0.43880
N559        N  0.02400463  0.37814095  0.00173016    -0.34810
N560        N  0.97536872  0.37809495  0.99843099    -0.29060
C561        C  0.95911582  0.40292853  0.99738726    -0.05160
C562        C  0.99949167  0.41935878  0.00000702     0.07060
C563        C  0.04002817  0.40302461  0.00269790     0.00850
H564        H  0.92075918  0.40856920  0.99486401     0.08500
H565        H  0.07832497  0.40877085  0.00532608     0.07580
N566        N  0.89953347  0.30805651  0.99416682    -0.36250
N567        N  0.92391400  0.28570075  0.99515613    -0.28430
C568        C  0.89151888  0.26582975  0.99574354    -0.03670
C569        C  0.84437239  0.27617183  0.99441565     0.04940
C570        C  0.85093268  0.30300737  0.99393873     0.03030
H571        H  0.90183678  0.24550972  0.99899617     0.08140
H572        H  0.82241795  0.31780188  0.99390590     0.06970
N573        N  0.07740600  0.28694539  0.74533150    -0.27420
N574        N  0.10040819  0.30962895  0.74209740    -0.35280
C575        C  0.14931261  0.30552206  0.74227224     0.00920
C576        C  0.15772995  0.27893180  0.74686030     0.06950
C577        C  0.11117646  0.26776628  0.74807258    -0.06150
H578        H  0.17626741  0.32087842  0.73823318     0.07610
H579        H  0.10248985  0.24719481  0.75125337     0.08810
Cu580      Cu  0.06475853  0.34531516  0.74049403     0.44170
Cu581      Cu  0.00126949  0.28339534  0.74622604     0.41990
Cu582      Cu  0.93272017  0.34449602  0.75516261     0.43880
N583        N  0.02233635  0.37876336  0.74602698    -0.34810
N584        N  0.97390391  0.37859827  0.75144057    -0.29060
C585        C  0.95764838  0.40343000  0.75397371    -0.05160
C586        C  0.99792610  0.41989984  0.75025623     0.07060
C587        C  0.03829142  0.40362774  0.74529871     0.00850
H588        H  0.91942990  0.40904237  0.75833999     0.08500
H589        H  0.07645521  0.40939743  0.74132671     0.07580
N590        N  0.90027369  0.30777650  0.75391393    -0.36250
N591        N  0.92499866  0.28565402  0.74918585    -0.28430
C592        C  0.89289145  0.26566056  0.74691015    -0.03670
C593        C  0.84539232  0.27554899  0.75130175     0.04940
C594        C  0.85183927  0.30239386  0.75538475     0.03030
H595        H  0.90392648  0.24564601  0.74088098     0.08140
H596        H  0.82330483  0.31706148  0.75897012     0.06970
O597        O  0.04014142  0.53887210  0.00250676    -0.73070
O598        O  0.04023896  0.46044176  0.00067185    -0.74050
O599        O  0.04024675  0.49995236  0.92694478    -0.62670
O600        O  0.03993199  0.49944561  0.57579780    -0.71080
O601        O  0.95803187  0.49935180  0.57567795    -0.70640
O602        O  0.95835612  0.50005861  0.92691918    -0.61890
O603        O  0.95836650  0.46038985  0.00021752    -0.74400
O604        O  0.95825890  0.53891224  0.00254310    -0.73180
Cu605      Cu  0.04300249  0.49967287  0.00143739     1.04560
Cu606      Cu  0.95538167  0.49966968  0.00129446     1.04330
C607        C  0.99922699  0.55122677  0.00322487     0.93120
C608        C  0.99934702  0.44806664  0.00026624     0.92260
C609        C  0.99930713  0.50011869  0.90351233     0.84410
C610        C  0.99893530  0.49946903  0.59913880     0.90680
O611        O  0.04060173  0.53928967  0.75100633    -0.73070
O612        O  0.03920344  0.46079664  0.75088485    -0.74050
O613        O  0.03985638  0.49978882  0.67681384    -0.62670
O614        O  0.04012533  0.50014727  0.82558475    -0.71080
O615        O  0.95823703  0.50049320  0.82582131    -0.70640
O616        O  0.95795864  0.50003101  0.67695812    -0.61890
O617        O  0.95732660  0.46106481  0.75149723    -0.74400
O618        O  0.95873537  0.53958766  0.75138702    -0.73180
Cu619      Cu  0.04280626  0.50000239  0.75110763     1.04560
Cu620      Cu  0.95519149  0.50032684  0.75143281     1.04330
C621        C  0.99982729  0.55179405  0.75107752     0.93120
C622        C  0.99811557  0.44858947  0.75098880     0.92260
C623        C  0.99888858  0.49975232  0.65348456     0.84410
C624        C  0.99923878  0.50029070  0.84912345     0.90680
C625        C  0.25959809  0.77298398  0.72413622    -0.20430
C626        C  0.29753369  0.76194231  0.75261422    -0.07000
C627        C  0.28827755  0.73855905  0.77896568     0.13870
C628        C  0.24153855  0.72690827  0.77577223    -0.20490
C629        C  0.20359970  0.73795295  0.74730158    -0.07010
C630        C  0.21285940  0.76133413  0.72094358     0.13860
C631        C  0.17472329  0.77372123  0.68783317    -0.23840
H632        H  0.26676265  0.79080186  0.70372349     0.15140
H633        H  0.23437351  0.70909109  0.79618676     0.15170
C634        C  0.32641704  0.72617378  0.81207424    -0.23790
H635        H  0.19028714  0.79030192  0.66647949     0.05390
H636        H  0.14407412  0.78172694  0.71038056     0.08610
H637        H  0.16053242  0.75911819  0.66075603     0.08610
H638        H  0.34060039  0.74077708  0.83915482     0.08590
H639        H  0.35707231  0.71817639  0.78952342     0.08590
H640        H  0.31085994  0.70958992  0.83342634     0.05370
C641        C  0.74027971  0.77237557  0.77796365    -0.20430
C642        C  0.70390437  0.76222522  0.74622978    -0.07000
C643        C  0.71444162  0.73963685  0.71758125     0.13870
C644        C  0.76085953  0.72775045  0.72191138    -0.20490
C645        C  0.79723126  0.73789762  0.75365250    -0.07010
C646        C  0.78669895  0.76048945  0.78229188     0.13860
C647        C  0.82308805  0.77163666  0.81901418    -0.23840
H648        H  0.73206854  0.78961116  0.80005135     0.15140
H649        H  0.76906990  0.71051402  0.69982555     0.15170
C650        C  0.67805933  0.72849239  0.68084835    -0.23790
H651        H  0.80664657  0.78771432  0.84141727     0.05390
H652        H  0.85527648  0.77992095  0.79931571     0.08610
H653        H  0.83531890  0.75616726  0.84504524     0.08610
H654        H  0.66582148  0.74396591  0.65482931     0.08590
H655        H  0.64587505  0.72019741  0.70053672     0.08590
H656        H  0.69451078  0.71242275  0.65843181     0.05370
C657        C  0.20838542  0.75919522  0.52484736    -0.20430
C658        C  0.20552235  0.73552151  0.99852189    -0.07000
C659        C  0.24787318  0.72626729  0.97306201     0.13870
C660        C  0.29173944  0.74084574  0.97512301    -0.20490
C661        C  0.29463929  0.76453663  0.00146534    -0.07010
C662        C  0.25225043  0.77377503  0.52690495     0.13860
C663        C  0.25307000  0.79834835  0.55803974    -0.23840
H664        H  0.17611503  0.76621591  0.54457352     0.15140
H665        H  0.32400965  0.73382472  0.95539685     0.15170
C666        C  0.24704804  0.70169911  0.94191203    -0.23790
H667        H  0.21828868  0.80091693  0.57925645     0.05390
H668        H  0.25696616  0.81575809  0.03409742     0.08610
H669        H  0.28383145  0.79752543  0.58517283     0.08610
H670        H  0.21627004  0.70252257  0.91479816     0.08590
H671        H  0.24317273  0.68428537  0.46584145     0.08590
H672        H  0.28181628  0.69914071  0.92066739     0.05370
C673        C  0.70915959  0.74163067  0.97294895    -0.20430
C674        C  0.70518743  0.76412753  0.00268785    -0.07000
C675        C  0.74663750  0.77249829  0.53043262     0.13870
C676        C  0.79095996  0.75837745  0.52706155    -0.20490
C677        C  0.79497387  0.73593404  0.99729890    -0.07010
C678        C  0.75348071  0.72750850  0.96958005     0.13860
C679        C  0.75594905  0.70442516  0.93463177    -0.23840
H680        H  0.67747841  0.73528764  0.95152968     0.15140
H681        H  0.82263922  0.76471914  0.54848488     0.15170
C682        C  0.74416219  0.79557648  0.56539283    -0.23790
H683        H  0.72161784  0.70237524  0.91248245     0.05390
H684        H  0.76053050  0.68601592  0.45572654     0.08610
H685        H  0.78707074  0.70690483  0.90827896     0.08610
H686        H  0.71304022  0.79309043  0.59174321     0.08590
H687        H  0.73959207  0.81399586  0.04427348     0.08590
H688        H  0.77849198  0.79762544  0.58754466     0.05370
C689        C  0.75671449  0.27455265  0.72886132    -0.20430
C690        C  0.79723268  0.26151497  0.74982125    -0.07000
C691        C  0.78970089  0.23652249  0.77103159     0.13870
C692        C  0.74218139  0.22564373  0.77102868    -0.20490
C693        C  0.70166835  0.23867538  0.75005106    -0.07010
C694        C  0.70919211  0.26367216  0.72885862     0.13860
C695        C  0.66809028  0.27914718  0.70553265    -0.23840
H696        H  0.76219770  0.29357674  0.71222136     0.15140
H697        H  0.73669869  0.20662064  0.78767324     0.15170
C698        C  0.83078876  0.22104686  0.79438006    -0.23790
H699        H  0.68220494  0.29646542  0.68527510     0.05390
H700        H  0.64305062  0.28665496  0.73479012     0.08610
H701        H  0.64743960  0.26684919  0.67866722     0.08610
H702        H  0.85146496  0.23335565  0.82120557     0.08590
H703        H  0.85580380  0.21350540  0.76513245     0.08590
H704        H  0.81665635  0.20374954  0.81468931     0.05370
C705        C  0.20956687  0.24130947  0.72176233    -0.20430
C706        C  0.20551745  0.26484323  0.74846217    -0.07000
C707        C  0.24603008  0.27352530  0.77733918     0.13870
C708        C  0.28932153  0.25850398  0.77830908    -0.20490
C709        C  0.29338190  0.23497664  0.75158941    -0.07010
C710        C  0.25285664  0.22628537  0.72273904     0.13860
C711        C  0.25508765  0.20183256  0.69134682    -0.23840
H712        H  0.17863290  0.23471891  0.69950941     0.15140
H713        H  0.32025419  0.26509587  0.80056257     0.15170
C714        C  0.24378045  0.29796429  0.80877116    -0.23790
H715        H  0.22179658  0.19963599  0.66777102     0.05390
H716        H  0.25659173  0.18432906  0.71527842     0.08610
H717        H  0.28769161  0.20245737  0.66644916     0.08610
H718        H  0.21114362  0.29733491  0.83362455     0.08590
H719        H  0.24232082  0.31548099  0.78487153     0.08590
H720        H  0.27703910  0.30013849  0.83240141     0.05370
C721        C  0.73943748  0.22831609  0.97050716    -0.20430
C722        C  0.70326376  0.23797658  0.00298471    -0.07000
C723        C  0.71409988  0.25992412  0.53311728     0.13870
C724        C  0.76062269  0.27173744  0.52960404    -0.20490
C725        C  0.79676458  0.26212228  0.99711570    -0.07010
C726        C  0.78596521  0.24012431  0.96700484     0.13860
C727        C  0.82222574  0.22961770  0.92958552    -0.23840
H728        H  0.73102086  0.21152223  0.94729807     0.15140
H729        H  0.76903858  0.28853276  0.55280966     0.15170
C730        C  0.67785670  0.27041579  0.57056854    -0.23790
H731        H  0.80555993  0.21411884  0.90596336     0.05390
H732        H  0.85426090  0.22079063  0.94866224     0.08610
H733        H  0.83472065  0.24566683  0.90503703     0.08610
H734        H  0.66540817  0.25436005  0.59512596     0.08590
H735        H  0.64579247  0.27923218  0.55152338     0.08590
H736        H  0.69452400  0.28591779  0.59418303     0.05370
C737        C  0.25943498  0.22752082  0.52746052    -0.20430
C738        C  0.29688471  0.23794339  0.99754621    -0.07000
C739        C  0.28727013  0.26070368  0.96947070     0.13870
C740        C  0.24061277  0.27246581  0.97247991    -0.20490
C741        C  0.20313441  0.26206474  0.00239990    -0.07010
C742        C  0.21277683  0.23928244  0.53046742     0.13860
C743        C  0.17507515  0.22776453  0.56517921    -0.23840
H744        H  0.26693674  0.21016923  0.54915949     0.15140
H745        H  0.23311144  0.28981746  0.95078101     0.15170
C746        C  0.32496880  0.27221659  0.93474886    -0.23790
H747        H  0.19063837  0.21138491  0.58702165     0.05390
H748        H  0.14360640  0.21971379  0.04388109     0.08610
H749        H  0.16195114  0.24292296  0.59171584     0.08610
H750        H  0.33809212  0.25705286  0.90822285     0.08590
H751        H  0.35644019  0.28026793  0.45603495     0.08590
H752        H  0.30940482  0.28859151  0.91289216     0.05370
loop_ 
_geom_bond_atom_site_label_1 
_geom_bond_atom_site_label_2 
_geom_bond_distance 
_geom_bond_site_symmetry_2 
_ccdc_geom_bond_type 
O1           Cu9   2.006   1_565  S
O1           C11   1.277       .  A
O2           Cu9   2.008       .  S
O2          C388   1.277       .  A
O3           Cu9   2.005       .  S
O3           C13   1.277       .  A
O4         Cu385   2.008   1_554  S
O4           C14   1.278   1_545  A
O5          Cu10   2.005   1_564  S
O5           C14   1.277       .  A
O6         Cu386   2.005       .  S
O6           C13   1.277       .  A
O7          Cu10   2.011       .  S
O7           C12   1.278       .  A
O8          Cu10   2.009   1_565  S
O8          C387   1.278       .  A
Cu9         O380   2.008       .  S
Cu9        Cu386   2.377       .  S
Cu10        O382   2.005       .  S
Cu10       Cu385   2.377       .  S
C11         O384   1.278       .  A
C11          C90   1.467       .  S
C12         O378   1.277       .  A
C12         C418   1.468       .  S
C13          C28   1.464       .  S
C14          C27   1.465       .  S
O15         Cu23   2.010       .  S
O15          C25   1.278       .  A
O16         Cu23   2.007   1_545  S
O16          C26   1.278       .  A
O17         Cu23   2.007       .  S
O17          C27   1.277       .  A
O18         Cu23   2.003   1_545  S
O18          C28   1.277       .  A
O19         Cu24   2.007   1_545  S
O19          C28   1.278       .  A
O20         Cu24   2.005       .  S
O20          C27   1.277       .  A
O21         Cu24   2.009   1_545  S
O21          C26   1.277       .  A
O22         Cu24   2.010       .  S
O22          C25   1.278       .  A
Cu23        Cu24   2.377       .  S
C25         C114   1.469       .  S
C26          C66   1.467       .  S
N29          N30   1.321       .  A
N29          C33   1.344       .  A
N29         Cu37   2.067       .  S
N30          C31   1.344       .  A
N30         Cu36   2.074       .  S
C31          C32   1.385       .  A
C31          H34   1.082       .  S
C32         C362   1.482       .  S
C32          C33   1.385       .  A
C33          H35   1.080       .  S
Cu36         N39   2.074       .  S
Cu37         N47   2.067       .  S
Cu38         N40   2.071       .  S
Cu38         N46   2.070       .  S
N39          N40   1.322       .  A
N39          C43   1.345       .  A
N40          C41   1.345       .  A
C41          C42   1.382       .  A
C41          H44   1.082       .  S
C42         C388   1.468       .  S
C42          C43   1.383       .  A
C43          H45   1.082       .  S
N46          N47   1.321       .  A
N46          C50   1.343       .  A
N47          C48   1.344       .  A
C48          C49   1.384       .  A
C48          H51   1.080       .  S
C49         C346   1.480       .  S
C49          C50   1.384       .  A
C50          H52   1.082       .  S
N53          N54   1.321       .  A
N53          C57   1.345       .  A
N53         Cu61   2.074       .  S
N54          C55   1.343       .  A
N54         Cu60   2.074       .  S
C55          C56   1.388       .  A
C55          H58   1.082       .  S
C56         C317   1.491       .  S
C56          C57   1.389       .  A
C57          H59   1.078       .  S
Cu60         N63   2.074       .  S
Cu61         N71   2.073       .  S
Cu62         N64   2.067       .  S
Cu62         N70   2.066       .  S
N63          N64   1.322       .  A
N63          C67   1.346       .  A
N64          C65   1.344       .  A
C65          C66   1.381       .  A
C65          H68   1.082       .  S
C66          C67   1.384       .  A
C67          H69   1.082       .  S
N70          N71   1.321       .  A
N70          C74   1.343       .  A
N71          C72   1.344       .  A
C72          C73   1.386       .  A
C72          H75   1.082       .  S
C73         C333   1.484       .  S
C73          C74   1.385       .  A
C74          H76   1.079       .  S
N77          N78   1.322       .  A
N77          C81   1.348       .  A
N77         Cu85   2.091       .  S
N78          C79   1.343       .  A
N78         Cu84   2.067       .  S
C79          C80   1.383       .  A
C79          H82   1.080       .  S
C80         C298   1.485       .  S
C80          C81   1.388       .  A
C81          H83   1.082       .  S
Cu84         N87   2.067       .  S
Cu85         N95   2.091       .  S
Cu86         N88   2.068       .  S
Cu86         N94   2.068       .  S
N87          N88   1.321       .  A
N87          C91   1.345       .  A
N88          C89   1.344       .  A
C89          C90   1.383       .  A
C89          H92   1.082       .  S
C90          C91   1.382       .  A
C91          H93   1.082       .  S
N94          N95   1.322       .  A
N94          C98   1.343       .  A
N95          C96   1.347       .  A
C96          C97   1.389       .  A
C96          H99   1.082       .  S
C97         C285   1.487       .  S
C97          C98   1.384       .  A
C98         H100   1.079       .  S
N101        N102   1.321       .  A
N101        C105   1.344       .  A
N101       Cu109   2.067       .  S
N102        C103   1.344       .  A
N102       Cu108   2.073       .  S
C103        C104   1.385       .  A
C103        H106   1.082       .  S
C104        C266   1.481       .  S
C104        C105   1.385       .  A
C105        H107   1.080       .  S
Cu108       N111   2.073       .  S
Cu109       N119   2.067       .  S
Cu110       N112   2.075       .  S
Cu110       N118   2.075       .  S
N111        N112   1.323       .  A
N111        C115   1.345       .  A
N112        C113   1.345       .  A
C113        C114   1.383       .  A
C113        H116   1.082       .  S
C114        C115   1.382       .  A
C115        H117   1.082       .  S
N118        N119   1.321       .  A
N118        C122   1.344       .  A
N119        C120   1.344       .  A
C120        C121   1.385       .  A
C120        H123   1.080       .  S
C121        C250   1.483       .  S
C121        C122   1.386       .  A
C122        H124   1.082       .  S
N125        N126   1.322       .  A
N125        C129   1.348       .  A
N125       Cu133   2.091   1_655  S
N126        C127   1.343       .  A
N126       Cu132   2.067       .  S
C127        C128   1.383       .  A
C127        H130   1.080       .  S
C128        C301   1.485       .  S
C128        C129   1.388       .  A
C129        H131   1.082       .  S
Cu132       N135   2.067       .  S
Cu133       N143   2.091       .  S
Cu134       N136   2.068       .  S
Cu134       N142   2.068       .  S
N135        N136   1.321   1_655  A
N135        C139   1.345       .  A
N136        C137   1.344       .  A
C137        C138   1.383   1_455  A
C137        H140   1.082       .  S
C138        C231   1.467       .  S
C138        C139   1.382       .  A
C139        H141   1.082       .  S
N142        N143   1.322       .  A
N142        C146   1.343       .  A
N143        C144   1.347       .  A
C144        C145   1.389       .  A
C144        H147   1.082       .  S
C145        C282   1.487       .  S
C145        C146   1.384       .  A
C146        H148   1.079       .  S
N149        N150   1.321       .  A
N149        C153   1.344       .  A
N149       Cu157   2.067   1_655  S
N150        C151   1.344       .  A
N150       Cu156   2.073       .  S
C151        C152   1.385       .  A
C151        H154   1.082       .  S
C152        C269   1.481       .  S
C152        C153   1.385       .  A
C153        H155   1.080       .  S
Cu156       N159   2.073       .  S
Cu157       N167   2.067       .  S
Cu158       N160   2.075       .  S
Cu158       N166   2.075       .  S
N159        N160   1.323   1_655  A
N159        C163   1.345       .  A
N160        C161   1.346       .  A
C161        C162   1.383       .  A
C161        H164   1.082       .  S
C162        C245   1.469   1_455  S
C162        C163   1.382   1_455  A
C163        H165   1.082       .  S
N166        N167   1.321       .  A
N166        C170   1.344       .  A
N167        C168   1.344       .  A
C168        C169   1.385       .  A
C168        H171   1.080       .  S
C169        C253   1.483       .  S
C169        C170   1.386       .  A
C170        H172   1.082       .  S
N173        N174   1.321       .  A
N173        C177   1.344       .  A
N173       Cu181   2.067   1_455  S
N174        C175   1.344       .  A
N174       Cu180   2.074       .  S
C175        C176   1.385       .  A
C175        H178   1.082       .  S
C176        C365   1.482       .  S
C176        C177   1.385       .  A
C177        H179   1.080       .  S
Cu180       N183   2.074       .  S
Cu181       N191   2.067       .  S
Cu182       N184   2.071       .  S
Cu182       N190   2.070       .  S
N183        N184   1.322   1_455  A
N183        C187   1.345       .  A
N184        C185   1.345       .  A
C185        C186   1.382       .  A
C185        H188   1.082       .  S
C186        C232   1.468       .  S
C186        C187   1.383   1_655  A
C187        H189   1.082       .  S
N190        N191   1.321       .  A
N190        C194   1.343       .  A
N191        C192   1.344       .  A
C192        C193   1.384       .  A
C192        H195   1.080       .  S
C193        C349   1.480       .  S
C193        C194   1.384       .  A
C194        H196   1.082       .  S
N197        N198   1.321       .  A
N197        C201   1.344       .  A
N197       Cu205   2.073       .  S
N198        C199   1.343       .  A
N198       Cu204   2.066       .  S
C199        C200   1.385       .  A
C199        H202   1.079       .  S
C200        C330   1.484       .  S
C200        C201   1.386       .  A
C201        H203   1.082       .  S
Cu204       N207   2.066       .  S
Cu205       N215   2.074   1_455  S
Cu206       N208   2.074       .  S
Cu206       N214   2.074       .  S
N207        N208   1.322   1_455  A
N207        C211   1.344       .  A
N208        C209   1.346       .  A
C209        C210   1.384       .  A
C209        H212   1.082       .  S
C210        C246   1.467       .  S
C210        C211   1.381   1_655  A
C211        H213   1.082       .  S
N214        N215   1.321       .  A
N214        C218   1.343       .  A
N215        C216   1.344       .  A
C216        C217   1.389       .  A
C216        H219   1.078       .  S
C217        C314   1.491       .  S
C217        C218   1.388       .  A
C218        H220   1.082       .  S
O221       Cu229   2.006       .  S
O221        C231   1.277   1_455  A
O222       Cu229   2.008       .  S
O222        C232   1.277   1_455  A
O223       Cu229   2.008       .  S
O223        C233   1.278   1_455  A
O224       Cu605   2.005       .  S
O224        C234   1.277   1_455  A
O225       Cu606   2.005       .  S
O225        C234   1.277       .  A
O226       Cu230   2.005       .  S
O226        C233   1.277       .  A
O227       Cu230   2.011       .  S
O227        C232   1.278       .  A
O228       Cu230   2.009       .  S
O228        C231   1.278       .  A
Cu229       O600   2.005       .  S
Cu229      Cu230   2.377   1_455  S
Cu230       O601   2.005       .  S
C233        C248   1.465       .  S
C234        C247   1.464       .  S
O235       Cu243   2.010       .  S
O235        C245   1.278   1_455  A
O236       Cu243   2.008       .  S
O236        C246   1.278   1_455  A
O237       Cu243   2.003       .  S
O237        C247   1.277   1_455  A
O238       Cu243   2.007       .  S
O238        C248   1.277   1_455  A
O239       Cu244   2.005       .  S
O239        C248   1.277       .  A
O240       Cu244   2.007       .  S
O240        C247   1.278       .  A
O241       Cu244   2.009       .  S
O241        C246   1.277       .  A
O242       Cu244   2.010       .  S
O242        C245   1.278       .  A
Cu243      Cu244   2.377   1_455  S
C249        C250   1.404       .  A
C249        C254   1.403       .  A
C249        H256   1.084       .  S
C250        C251   1.416       .  A
C251        C252   1.403       .  A
C251        C258   1.508       .  S
C252        C253   1.404       .  A
C252        H257   1.084       .  S
C253        C254   1.416       .  A
C254        C255   1.508       .  S
C255        H259   1.110       .  S
C255        H260   1.107       .  S
C255        H261   1.110       .  S
C258        H262   1.110       .  S
C258        H263   1.107       .  S
C258        H264   1.110       .  S
C265        C266   1.404       .  A
C265        C270   1.403       .  A
C265        H272   1.084       .  S
C266        C267   1.415       .  A
C267        C268   1.403       .  A
C267        C274   1.508       .  S
C268        C269   1.404       .  A
C268        H273   1.084       .  S
C269        C270   1.415       .  A
C270        C271   1.508       .  S
C271        H275   1.111       .  S
C271        H276   1.107       .  S
C271        H277   1.110       .  S
C274        H278   1.110       .  S
C274        H279   1.107       .  S
C274        H280   1.111       .  S
C281        C286   1.405       .  A
C281        C658   1.403   1_554  A
C281        H288   1.084       .  S
C282        C283   1.418       .  A
C282        C657   1.403       .  A
C283        C284   1.405       .  A
C283        C290   1.508       .  S
C284        C285   1.403       .  A
C284        H289   1.084       .  S
C285        C662   1.418       .  A
C286        C661   1.418       .  A
C286        C287   1.508       .  S
C287        H291   1.110       .  S
C287        H293   1.110       .  S
C287        H668   1.107       .  S
C290        H294   1.110       .  S
C290        H296   1.110       .  S
C290        H671   1.107       .  S
H292        C663   1.107       .  S
H295        C666   1.107       .  S
C297        C298   1.403       .  A
C297        C302   1.405       .  A
C297        H304   1.084       .  S
C298        C675   1.417       .  A
C299        C300   1.405       .  A
C299        C674   1.417       .  A
C299        C306   1.508       .  S
C300        C677   1.403   1_554  A
C300        H305   1.084       .  S
C301        C302   1.417       .  A
C301        C676   1.403       .  A
C302        C303   1.508       .  S
C303        H307   1.111       .  S
C303        H309   1.110       .  S
C303        H684   1.107       .  S
C306        H310   1.110       .  S
C306        H312   1.111       .  S
C306        H687   1.107       .  S
H308        C679   1.107       .  S
H311        C682   1.107       .  S
C313        C314   1.405       .  A
C313        C318   1.404       .  A
C313        H320   1.083       .  S
C314        C315   1.417       .  A
C315        C316   1.404       .  A
C315        C322   1.506       .  S
C316        C317   1.405       .  A
C316        H321   1.084       .  S
C317        C318   1.417       .  A
C318        C319   1.506       .  S
C319        H323   1.111       .  S
C319        H324   1.107       .  S
C319        H325   1.109       .  S
C322        H326   1.108       .  S
C322        H327   1.107       .  S
C322        H328   1.111       .  S
C329        C330   1.403       .  A
C329        C334   1.404       .  A
C329        H336   1.084       .  S
C330        C331   1.417       .  A
C331        C332   1.404       .  A
C331        C338   1.507       .  S
C332        C333   1.403       .  A
C332        H337   1.084       .  S
C333        C334   1.417       .  A
C334        C335   1.507       .  S
C335        H339   1.110       .  S
C335        H340   1.106       .  S
C335        H341   1.110       .  S
C338        H342   1.110       .  S
C338        H343   1.106       .  S
C338        H344   1.110       .  S
C345        C346   1.403       .  A
C345        C350   1.403       .  A
C345        H352   1.084       .  S
C346        C723   1.414       .  A
C347        C348   1.403       .  A
C347        C722   1.414       .  A
C347        C354   1.505       .  S
C348        C725   1.403   1_554  A
C348        H353   1.084       .  S
C349        C350   1.414       .  A
C349        C724   1.403       .  A
C350        C351   1.505       .  S
C351        H355   1.110       .  S
C351        H356   1.107       .  S
C351        H357   1.110       .  S
C354        H358   1.110       .  S
C354        H359   1.107       .  S
C354        H360   1.110       .  S
C361        C366   1.403       .  A
C361        C738   1.404   1_554  A
C361        H368   1.084       .  S
C362        C363   1.415       .  A
C362        C737   1.404       .  A
C363        C364   1.403       .  A
C363        C370   1.507       .  S
C364        C365   1.404       .  A
C364        H369   1.084       .  S
C365        C742   1.415       .  A
C366        C741   1.415       .  A
C366        C367   1.507       .  S
C367        H371   1.110       .  S
C367        H373   1.110       .  S
C367        H748   1.107       .  S
C370        H374   1.110       .  S
C370        H376   1.110       .  S
C370        H751   1.107       .  S
H372        C743   1.107       .  S
H375        C746   1.107       .  S
O377       Cu385   2.006   1_565  S
O377        C387   1.277       .  A
O378       Cu385   2.008       .  S
O379       Cu385   2.005       .  S
O379        C389   1.277       .  A
O380        C390   1.278   1_545  A
O381       Cu386   2.005   1_565  S
O381        C390   1.277       .  A
O382        C389   1.277       .  A
O383       Cu386   2.011       .  S
O383        C388   1.278       .  A
O384       Cu386   2.009   1_565  S
C387        C466   1.467       .  S
C389        C404   1.464       .  S
C390        C403   1.465       .  S
O391       Cu399   2.010       .  S
O391        C401   1.278       .  A
O392       Cu399   2.007   1_545  S
O392        C402   1.278       .  A
O393       Cu399   2.007       .  S
O393        C403   1.277       .  A
O394       Cu399   2.003   1_545  S
O394        C404   1.277       .  A
O395       Cu400   2.007   1_545  S
O395        C404   1.278       .  A
O396       Cu400   2.005       .  S
O396        C403   1.277       .  A
O397       Cu400   2.009   1_545  S
O397        C402   1.277       .  A
O398       Cu400   2.010       .  S
O398        C401   1.278       .  A
Cu399      Cu400   2.377       .  S
C401        C490   1.469       .  S
C402        C442   1.467       .  S
N405        N406   1.321       .  A
N405        C409   1.344       .  A
N405       Cu413   2.067   1_556  S
N406        C407   1.344       .  A
N406       Cu412   2.074       .  S
C407        C408   1.385       .  A
C407        H410   1.082       .  S
C408        C738   1.482       .  S
C408        C409   1.385       .  A
C409        H411   1.080   1_556  S
Cu412       N415   2.074       .  S
Cu413       N423   2.067       .  S
Cu414       N416   2.071       .  S
Cu414       N422   2.070       .  S
N415        N416   1.322   1_556  A
N415        C419   1.345       .  A
N416        C417   1.345       .  A
C417        C418   1.382   1_554  A
C417        H420   1.082       .  S
C418        C419   1.383       .  A
C419        H421   1.082       .  S
N422        N423   1.321       .  A
N422        C426   1.343       .  A
N423        C424   1.344       .  A
C424        C425   1.384       .  A
C424        H427   1.080       .  S
C425        C722   1.480       .  S
C425        C426   1.384       .  A
C426        H428   1.082       .  S
N429        N430   1.321       .  A
N429        C433   1.345       .  A
N429       Cu437   2.074       .  S
N430        C431   1.343       .  A
N430       Cu436   2.074       .  S
C431        C432   1.388       .  A
C431        H434   1.082       .  S
C432        C693   1.491       .  S
C432        C433   1.389       .  A
C433        H435   1.078       .  S
Cu436       N439   2.074       .  S
Cu437       N447   2.073       .  S
Cu438       N440   2.067       .  S
Cu438       N446   2.066       .  S
N439        N440   1.322       .  A
N439        C443   1.346       .  A
N440        C441   1.344       .  A
C441        C442   1.381       .  A
C441        H444   1.082       .  S
C442        C443   1.384       .  A
C443        H445   1.082       .  S
N446        N447   1.321       .  A
N446        C450   1.343       .  A
N447        C448   1.344       .  A
C448        C449   1.386       .  A
C448        H451   1.082       .  S
C449        C709   1.484       .  S
C449        C450   1.385       .  A
C450        H452   1.079       .  S
N453        N454   1.322   1_554  A
N453        C457   1.348       .  A
N453       Cu461   2.091       .  S
N454        C455   1.343       .  A
N454       Cu460   2.067       .  S
C455        C456   1.383   1_556  A
C455        H458   1.080       .  S
C456        C674   1.485       .  S
C456        C457   1.388       .  A
C457        H459   1.082       .  S
Cu460       N463   2.067       .  S
Cu461       N471   2.091       .  S
Cu462       N464   2.068       .  S
Cu462       N470   2.068       .  S
N463        N464   1.321       .  A
N463        C467   1.345       .  A
N464        C465   1.344       .  A
C465        C466   1.383       .  A
C465        H468   1.082       .  S
C466        C467   1.382       .  A
C467        H469   1.082       .  S
N470        N471   1.322   1_556  A
N470        C474   1.343       .  A
N471        C472   1.347       .  A
C472        C473   1.389       .  A
C472        H475   1.082       .  S
C473        C661   1.487       .  S
C473        C474   1.384   1_554  A
C474        H476   1.079       .  S
N477        N478   1.321       .  A
N477        C481   1.344       .  A
N477       Cu485   2.067       .  S
N478        C479   1.344       .  A
N478       Cu484   2.073       .  S
C479        C480   1.385       .  A
C479        H482   1.082       .  S
C480        C642   1.481       .  S
C480        C481   1.385       .  A
C481        H483   1.080       .  S
Cu484       N487   2.073       .  S
Cu485       N495   2.067       .  S
Cu486       N488   2.075       .  S
Cu486       N494   2.075       .  S
N487        N488   1.323       .  A
N487        C491   1.345       .  A
N488        C489   1.345       .  A
C489        C490   1.383       .  A
C489        H492   1.082       .  S
C490        C491   1.382       .  A
C491        H493   1.082       .  S
N494        N495   1.321       .  A
N494        C498   1.344       .  A
N495        C496   1.344       .  A
C496        C497   1.385       .  A
C496        H499   1.080       .  S
C497        C626   1.483       .  S
C497        C498   1.386       .  A
C498        H500   1.082       .  S
N501        N502   1.322   1_556  A
N501        C505   1.348       .  A
N501       Cu509   2.091   1_655  S
N502        C503   1.343       .  A
N502       Cu508   2.067       .  S
C503        C504   1.383   1_554  A
C503        H506   1.080       .  S
C504        C677   1.485       .  S
C504        C505   1.388       .  A
C505        H507   1.082       .  S
Cu508       N511   2.067       .  S
Cu509       N519   2.091       .  S
Cu510       N512   2.068       .  S
Cu510       N518   2.068       .  S
N511        N512   1.321   1_655  A
N511        C515   1.345       .  A
N512        C513   1.344       .  A
C513        C514   1.383   1_455  A
C513        H516   1.082       .  S
C514        C607   1.467       .  S
C514        C515   1.382       .  A
C515        H517   1.082       .  S
N518        N519   1.322   1_554  A
N518        C522   1.343       .  A
N519        C520   1.347       .  A
C520        C521   1.389       .  A
C520        H523   1.082       .  S
C521        C658   1.487       .  S
C521        C522   1.384   1_556  A
C522        H524   1.079       .  S
N525        N526   1.321       .  A
N525        C529   1.344       .  A
N525       Cu533   2.067   1_655  S
N526        C527   1.344       .  A
N526       Cu532   2.073       .  S
C527        C528   1.385       .  A
C527        H530   1.082       .  S
C528        C645   1.481       .  S
C528        C529   1.385       .  A
C529        H531   1.080       .  S
Cu532       N535   2.073       .  S
Cu533       N543   2.067       .  S
Cu534       N536   2.075       .  S
Cu534       N542   2.075       .  S
N535        N536   1.323   1_655  A
N535        C539   1.345       .  A
N536        C537   1.346       .  A
C537        C538   1.383       .  A
C537        H540   1.082       .  S
C538        C621   1.469   1_455  S
C538        C539   1.382   1_455  A
C539        H541   1.082       .  S
N542        N543   1.321       .  A
N542        C546   1.344       .  A
N543        C544   1.344       .  A
C544        C545   1.385       .  A
C544        H547   1.080       .  S
C545        C629   1.483       .  S
C545        C546   1.386       .  A
C546        H548   1.082       .  S
N549        N550   1.321       .  A
N549        C553   1.344       .  A
N549       Cu557   2.067   1_454  S
N550        C551   1.344       .  A
N550       Cu556   2.074       .  S
C551        C552   1.385       .  A
C551        H554   1.082       .  S
C552        C741   1.482       .  S
C552        C553   1.385       .  A
C553        H555   1.080   1_554  S
Cu556       N559   2.074       .  S
Cu557       N567   2.067       .  S
Cu558       N560   2.071       .  S
Cu558       N566   2.070       .  S
N559        N560   1.322   1_454  A
N559        C563   1.345       .  A
N560        C561   1.345       .  A
C561        C562   1.382   1_556  A
C561        H564   1.082       .  S
C562        C608   1.468       .  S
C562        C563   1.383   1_655  A
C563        H565   1.082       .  S
N566        N567   1.321       .  A
N566        C570   1.343       .  A
N567        C568   1.344       .  A
C568        C569   1.384       .  A
C568        H571   1.080       .  S
C569        C725   1.480       .  S
C569        C570   1.384       .  A
C570        H572   1.082       .  S
N573        N574   1.321       .  A
N573        C577   1.344       .  A
N573       Cu581   2.073       .  S
N574        C575   1.343       .  A
N574       Cu580   2.066       .  S
C575        C576   1.385       .  A
C575        H578   1.079       .  S
C576        C706   1.484       .  S
C576        C577   1.386       .  A
C577        H579   1.082       .  S
Cu580       N583   2.066       .  S
Cu581       N591   2.074   1_455  S
Cu582       N584   2.074       .  S
Cu582       N590   2.074       .  S
N583        N584   1.322   1_455  A
N583        C587   1.344       .  A
N584        C585   1.346       .  A
C585        C586   1.384       .  A
C585        H588   1.082       .  S
C586        C622   1.467       .  S
C586        C587   1.381   1_655  A
C587        H589   1.082       .  S
N590        N591   1.321       .  A
N590        C594   1.343       .  A
N591        C592   1.344       .  A
C592        C593   1.389       .  A
C592        H595   1.078       .  S
C593        C690   1.491       .  S
C593        C594   1.388       .  A
C594        H596   1.082       .  S
O597       Cu605   2.006       .  S
O597        C607   1.277   1_455  A
O598       Cu605   2.008       .  S
O598        C608   1.277   1_455  A
O599       Cu605   2.008   1_556  S
O599        C609   1.278   1_455  A
O600        C610   1.277   1_455  A
O601        C610   1.277       .  A
O602       Cu606   2.005   1_556  S
O602        C609   1.277       .  A
O603       Cu606   2.011       .  S
O603        C608   1.278       .  A
O604       Cu606   2.009       .  S
O604        C607   1.278       .  A
Cu605      Cu606   2.377   1_455  S
C609        C624   1.465       .  S
C610        C623   1.464       .  S
O611       Cu619   2.010       .  S
O611        C621   1.278   1_455  A
O612       Cu619   2.008       .  S
O612        C622   1.278   1_455  A
O613       Cu619   2.003       .  S
O613        C623   1.277   1_455  A
O614       Cu619   2.007       .  S
O614        C624   1.277   1_455  A
O615       Cu620   2.005       .  S
O615        C624   1.277       .  A
O616       Cu620   2.007       .  S
O616        C623   1.278       .  A
O617       Cu620   2.009       .  S
O617        C622   1.277       .  A
O618       Cu620   2.010       .  S
O618        C621   1.278       .  A
Cu619      Cu620   2.377   1_455  S
C625        C626   1.404       .  A
C625        C630   1.403       .  A
C625        H632   1.084       .  S
C626        C627   1.416       .  A
C627        C628   1.403       .  A
C627        C634   1.508       .  S
C628        C629   1.404       .  A
C628        H633   1.084       .  S
C629        C630   1.416       .  A
C630        C631   1.508       .  S
C631        H635   1.110       .  S
C631        H636   1.107       .  S
C631        H637   1.110       .  S
C634        H638   1.110       .  S
C634        H639   1.107       .  S
C634        H640   1.110       .  S
C641        C642   1.404       .  A
C641        C646   1.403       .  A
C641        H648   1.084       .  S
C642        C643   1.415       .  A
C643        C644   1.403       .  A
C643        C650   1.508       .  S
C644        C645   1.404       .  A
C644        H649   1.084       .  S
C645        C646   1.415       .  A
C646        C647   1.508       .  S
C647        H651   1.111       .  S
C647        H652   1.107       .  S
C647        H653   1.110       .  S
C650        H654   1.110       .  S
C650        H655   1.107       .  S
C650        H656   1.111       .  S
C657        C662   1.405       .  A
C657        H664   1.084       .  S
C658        C659   1.418       .  A
C659        C660   1.405       .  A
C659        C666   1.508       .  S
C660        C661   1.403   1_556  A
C660        H665   1.084       .  S
C662        C663   1.508       .  S
C663        H667   1.110       .  S
C663        H669   1.110       .  S
C666        H670   1.110       .  S
C666        H672   1.110       .  S
C673        C674   1.403   1_556  A
C673        C678   1.405       .  A
C673        H680   1.084       .  S
C675        C676   1.405       .  A
C675        C682   1.508       .  S
C676        H681   1.084       .  S
C677        C678   1.417       .  A
C678        C679   1.508       .  S
C679        H683   1.111       .  S
C679        H685   1.110       .  S
C682        H686   1.110       .  S
C682        H688   1.111       .  S
C689        C690   1.405       .  A
C689        C694   1.404       .  A
C689        H696   1.083       .  S
C690        C691   1.417       .  A
C691        C692   1.404       .  A
C691        C698   1.506       .  S
C692        C693   1.405       .  A
C692        H697   1.084       .  S
C693        C694   1.417       .  A
C694        C695   1.506       .  S
C695        H699   1.111       .  S
C695        H700   1.107       .  S
C695        H701   1.109       .  S
C698        H702   1.108       .  S
C698        H703   1.107       .  S
C698        H704   1.111       .  S
C705        C706   1.403       .  A
C705        C710   1.404       .  A
C705        H712   1.084       .  S
C706        C707   1.417       .  A
C707        C708   1.404       .  A
C707        C714   1.507       .  S
C708        C709   1.403       .  A
C708        H713   1.084       .  S
C709        C710   1.417       .  A
C710        C711   1.507       .  S
C711        H715   1.110       .  S
C711        H716   1.106       .  S
C711        H717   1.110       .  S
C714        H718   1.110       .  S
C714        H719   1.106       .  S
C714        H720   1.110       .  S
C721        C722   1.403   1_556  A
C721        C726   1.403       .  A
C721        H728   1.084       .  S
C723        C724   1.403       .  A
C723        C730   1.505       .  S
C724        H729   1.084       .  S
C725        C726   1.414       .  A
C726        C727   1.505       .  S
C727        H731   1.110       .  S
C727        H732   1.107       .  S
C727        H733   1.110       .  S
C730        H734   1.110       .  S
C730        H735   1.107       .  S
C730        H736   1.110       .  S
C737        C742   1.403       .  A
C737        H744   1.084       .  S
C738        C739   1.415       .  A
C739        C740   1.403       .  A
C739        C746   1.507       .  S
C740        C741   1.404   1_556  A
C740        H745   1.084       .  S
C742        C743   1.507       .  S
C743        H747   1.110       .  S
C743        H749   1.110       .  S
C746        H750   1.110       .  S
C746        H752   1.110       .  S
