geometry optimzed in LAMMPS
_audit_creation_date              2020-11-30 
_audit_creation_method            'lammps2cif' 
_symmetry_space_group_name_H-M    'P1' 
_symmetry_Int_Tables_number       1 
_symmetry_cell_setting            triclinic 
loop_ 
_symmetry_equiv_pos_as_xyz 
  x,y,z 
_cell_length_a                    40.35868177215492 
_cell_length_b                    34.64195670862099 
_cell_length_c                    53.68060534260027 
_cell_angle_alpha                 90.88917251186521 
_cell_angle_beta                  89.67303148942719 
_cell_angle_gamma                 89.88930408387671 
loop_ 
_atom_site_label 
_atom_site_type_symbol 
_atom_site_fract_x 
_atom_site_fract_y 
_atom_site_fract_z 
_atom_site_charge 
O1          O  0.42662685  0.18830946  0.79868837    -0.75230
O2          O  0.45434261  0.13918884  0.77873155    -0.54140
C3          C  0.43150259  0.15239832  0.79364097     0.78500
O4          O  0.42968635  0.31252974  0.70330437    -0.59830
O5          O  0.45709254  0.36069164  0.72433875    -0.52860
C6          C  0.43516359  0.34817460  0.70857891     0.70510
O7          O  0.42987268  0.18573589  0.70418960    -0.74390
O8          O  0.45647928  0.13810552  0.72538996    -0.54950
C9          C  0.43497025  0.15025198  0.70953953     0.76510
O10         O  0.42873489  0.31489765  0.80015890    -0.59530
O11         O  0.45531588  0.36282838  0.77918809    -0.52650
C12         C  0.43322325  0.35047438  0.79483010     0.73110
Zr13       Zr  0.44828092  0.25124134  0.78900051     2.54710
O14         O  0.38805985  0.25275643  0.79148360    -0.80100
O15         O  0.45482406  0.25182181  0.83408838    -0.93520
Zr16       Zr  0.44894146  0.24956068  0.71568761     2.64680
O17         O  0.38858488  0.24831629  0.71560062    -0.98470
O18         O  0.45520384  0.24906382  0.67051720    -0.80530
O19         O  0.44781559  0.21258057  0.75235744    -0.83890
O20         O  0.44811266  0.28826989  0.75232851    -2.18600
O21         O  0.06299591  0.31431444  0.80067004    -0.67280
O22         O  0.03739956  0.36234671  0.77924401    -0.51850
C23         C  0.05895225  0.34990968  0.79510056     0.71490
O24         O  0.06379245  0.18483310  0.70521086    -0.60190
O25         O  0.03536169  0.13739213  0.72536328    -0.52170
C26         C  0.05776974  0.14938931  0.71003152     0.73290
O27         O  0.06532021  0.31103554  0.70387681    -0.71580
O28         O  0.03729541  0.35952285  0.72450395    -0.50260
C29         C  0.05964788  0.34672917  0.70895151     0.74680
O30         O  0.06370469  0.18695825  0.79946430    -0.66910
O31         O  0.03633034  0.13837687  0.77900862    -0.54110
C32         C  0.05867141  0.15114210  0.79425600     0.73060
Zr33       Zr  0.04360744  0.25052600  0.78937776     2.77540
O34         O  0.10390997  0.24929894  0.79158748    -0.97660
O35         O  0.03631938  0.25073270  0.83443698    -0.78480
Zr36       Zr  0.04465025  0.24880317  0.71616525     2.70070
O37         O  0.10495186  0.24827731  0.71540943    -0.79730
O38         O  0.03844919  0.24661028  0.67106837    -0.98810
Zr39       Zr  0.99592495  0.17232338  0.75266602     2.21500
Zr40       Zr  0.49661122  0.32810210  0.75243270     2.11130
O41         O  0.04485122  0.28757627  0.75273926    -2.47500
O42         O  0.04450467  0.21172694  0.75276746    -0.79520
O43         O  0.49606437  0.29070069  0.78978180    -0.71720
O44         O  0.99665709  0.20977440  0.71538662    -2.32680
O45         O  0.99574315  0.21124162  0.79005232    -2.28880
O46         O  0.49699142  0.28872312  0.71526476    -0.73480
H47         H  0.42829734  0.30392371  0.75221680     0.78520
H48         H  0.99687665  0.19322140  0.70073698     0.79610
H49         H  0.06479631  0.30292039  0.75270385     0.81830
H50         H  0.99548386  0.19533468  0.80467653     0.79440
H51         H  0.46294837  0.22268563  0.66610239     0.42470
H52         H  0.02861875  0.27188527  0.66687399     0.41440
H53         H  0.11132766  0.24750875  0.73317673     0.41120
H54         H  0.11144950  0.27050921  0.78079157     0.39060
H55         H  0.02643684  0.27625972  0.83850529     0.42190
H56         H  0.45783186  0.22440760  0.83852070     0.36970
H57         H  0.38072059  0.24680944  0.77428198     0.43090
H58         H  0.38169846  0.27062212  0.72617587     0.39500
H59         H  0.10912933  0.25818447  0.80874229     0.44420
H60         H  0.43257206  0.25866285  0.84067607     0.43150
H61         H  0.38234589  0.25555681  0.69847949     0.43280
H62         H  0.06140335  0.24778601  0.66451584     0.43640
C63         C  0.37098058  0.11929733  0.84223745     0.03190
C64         C  0.39908774  0.13552834  0.83123267    -0.12960
C65         C  0.40808887  0.12608995  0.80640044     0.00690
C66         C  0.38825066  0.09965828  0.79281888    -0.11490
C67         C  0.35977365  0.08350587  0.80405343     0.03180
C68         C  0.35295323  0.09154321  0.82913654    -0.10910
H69         H  0.41212556  0.15827064  0.84120955     0.08780
H70         H  0.39290609  0.09489613  0.77313171     0.06310
H71         H  0.33099633  0.07946596  0.83777045     0.06150
O72         O  0.30324513  0.07761412  0.69971508    -0.75230
O73         O  0.34075548  0.04294058  0.72192327    -0.54140
C74         C  0.33303802  0.06904592  0.70627440     0.78500
O75         O  0.18835539  0.07171629  0.79666426    -0.59830
O76         O  0.14949100  0.04179194  0.77257486    -0.52860
C77         C  0.15801963  0.06466747  0.79034166     0.70510
O78         O  0.30323549  0.07197072  0.79538457    -0.74390
O79         O  0.34233036  0.03935010  0.77254174    -0.54950
C80         C  0.33362423  0.06369875  0.78954411     0.76510
O81         O  0.19060553  0.07797289  0.69794983    -0.59530
O82         O  0.15242246  0.04555592  0.72111351    -0.52650
C83         C  0.16062609  0.07057123  0.70486286     0.73110
Zr84       Zr  0.24659019  0.05721174  0.70959235     2.54710
O85         O  0.24659343  0.12746221  0.70947579    -0.80100
O86         O  0.24781307  0.05337059  0.66425028    -0.93520
Zr87       Zr  0.24574575  0.05619577  0.78398028     2.64680
O88         O  0.24601984  0.12650073  0.78419679    -0.98470
O89         O  0.24623375  0.05769146  0.82933537    -0.80530
O90         O  0.27794625  0.05704043  0.74692796    -0.83890
O91         O  0.21450516  0.05837367  0.74682998    -2.18600
O92         O  0.18749115  0.42604852  0.69507662    -0.67280
O93         O  0.15027566  0.45919761  0.71953057    -0.51850
C94         C  0.15761944  0.43466309  0.70230433     0.71490
O95         O  0.30100750  0.42435442  0.79495461    -0.60190
O96         O  0.34054339  0.45651211  0.77305526    -0.52170
C97         C  0.33147618  0.43252788  0.78976131     0.73290
O98         O  0.18753597  0.42876526  0.79501449    -0.71580
O99         O  0.14875617  0.46020454  0.77223979    -0.50260
C100        C  0.15725826  0.43709669  0.78950923     0.74680
O101        O  0.30248041  0.42174834  0.69637530    -0.66910
O102        O  0.33999946  0.45404221  0.72065284    -0.54110
C103        C  0.33234334  0.42919621  0.70375205     0.73060
Zr104      Zr  0.24525979  0.44258959  0.70727941     2.77540
O105        O  0.24394789  0.37237046  0.70492178    -0.97660
O106        O  0.24695555  0.44765826  0.66210821    -0.78480
Zr107      Zr  0.24471945  0.44128192  0.78173604     2.70070
O108        O  0.24278759  0.37134356  0.77689669    -0.79730
O109        O  0.24547887  0.43455580  0.82683518    -0.98810
Zr110      Zr  0.30875138  0.49833466  0.74632914     2.21500
Zr111      Zr  0.18265591  0.50050957  0.74599515     2.11130
O112        O  0.21319787  0.44147480  0.74460931    -2.47500
O113        O  0.27688073  0.44055585  0.74461876    -0.79520
O114        O  0.21351042  0.00054298  0.70796720    -0.71720
O115        O  0.27702857  0.49827332  0.78387910    -2.32680
O116        O  0.27842194  0.49937683  0.70820557    -2.28880
O117        O  0.21328980  0.49920385  0.78375176    -0.73480
H118        H  0.20044690  0.08096869  0.74729138     0.78520
H119        H  0.29108216  0.49791225  0.79837487     0.79610
H120        H  0.19850977  0.41949046  0.74439345     0.81830
H121        H  0.29328876  0.99945019  0.69403753     0.79440
H122        H  0.25881066  0.03433036  0.83395973     0.42470
H123        H  0.22938484  0.45400791  0.83317757     0.41440
H124        H  0.25799220  0.36551489  0.76278816     0.41120
H125        H  0.22522671  0.36496874  0.71583751     0.39060
H126        H  0.23090163  0.46839665  0.65836388     0.42190
H127        H  0.26977246  0.04223219  0.65998539     0.36970
H128        H  0.25089072  0.13505985  0.72701658     0.43090
H129        H  0.22512286  0.13385632  0.77592881     0.39500
H130        H  0.23622633  0.36634352  0.68782602     0.44420
H131        H  0.24924224  0.08057204  0.65895649     0.43150
H132        H  0.24258747  0.13398468  0.80190396     0.43280
H133        H  0.23477401  0.40937053  0.82994192     0.43640
C134        C  0.12042737  0.38441598  0.84322186     0.03190
C135        C  0.13861498  0.41107128  0.82953023    -0.12960
C136        C  0.13115134  0.41849421  0.80463489     0.00690
C137        C  0.10222490  0.40244610  0.79399632    -0.11490
C138        C  0.08256529  0.37658559  0.80780658     0.03180
C139        C  0.09217506  0.36775237  0.83241204    -0.10910
H140        H  0.16094981  0.42319011  0.83761829     0.08780
H141        H  0.09721524  0.40652033  0.77440177     0.06310
H142        H  0.07950891  0.34493957  0.84219340     0.06150
C143        C  0.37150271  0.38188558  0.84358449     0.03190
C144        C  0.40121942  0.36876256  0.83271082    -0.12960
C145        C  0.40937382  0.37695967  0.80770062     0.00690
C146        C  0.38764505  0.40035298  0.79394149    -0.11490
C147        C  0.35743235  0.41336964  0.80468057     0.03180
C148        C  0.35001056  0.40433998  0.82951601    -0.10910
H149        H  0.41652791  0.34889248  0.84302759     0.08780
H150        H  0.39241076  0.40481687  0.77431128     0.06310
H151        H  0.32630284  0.41277623  0.83752509     0.06150
C152        C  0.11706045  0.11781761  0.84350757     0.03190
C153        C  0.08872194  0.13289424  0.83233042    -0.12960
C154        C  0.08140156  0.12439012  0.80716797     0.00690
C155        C  0.10266991  0.09927689  0.79356310    -0.11490
C156        C  0.13146373  0.08428252  0.80487165     0.03180
C157        C  0.13750954  0.09260856  0.82997795    -0.10910
H158        H  0.07443776  0.15470381  0.84237983     0.08780
H159        H  0.09883975  0.09487367  0.77377237     0.06310
H160        H  0.16017329  0.08246933  0.83849668     0.06150
C161        C  0.10437615  0.10931864  0.65525789     0.03190
C162        C  0.07759478  0.12254364  0.67001873    -0.12960
C163        C  0.07893838  0.12199684  0.69607487     0.00690
C164        C  0.10615127  0.10473616  0.70756479    -0.11490
C165        C  0.13317105  0.09137549  0.69311148     0.03180
C166        C  0.13298173  0.09608430  0.66723710    -0.10910
H167        H  0.05589021  0.13481244  0.66133480     0.08780
H168        H  0.10735240  0.10402177  0.72771067     0.06310
H169        H  0.15478313  0.08827803  0.65656100     0.06150
C170        C  0.09379384  0.40245402  0.65453973     0.03190
C171        C  0.07560598  0.37627972  0.66895933    -0.12960
C172        C  0.08020356  0.37402867  0.69473008     0.00690
C173        C  0.10726583  0.39320008  0.70555814    -0.11490
C174        C  0.12915571  0.41478966  0.69066834     0.03180
C175        C  0.12157876  0.42055420  0.66547366    -0.10910
H176        H  0.05738208  0.35778845  0.66028925     0.08780
H177        H  0.11211041  0.39000590  0.72526234     0.06310
H178        H  0.13653176  0.44041083  0.65483218     0.06150
C179        C  0.38824758  0.10743807  0.65569585     0.03190
C180        C  0.41436179  0.12320053  0.66975001    -0.12960
C181        C  0.41359361  0.12286261  0.69589691     0.00690
C182        C  0.38727781  0.10434138  0.70805251    -0.11490
C183        C  0.36055684  0.08945309  0.69416219     0.03180
C184        C  0.36050524  0.09294932  0.66821927    -0.10910
H185        H  0.43509510  0.13668283  0.66037594     0.08780
H186        H  0.38636306  0.10399496  0.72821097     0.06310
H187        H  0.33918732  0.08320374  0.65777901     0.06150
C188        C  0.39660538  0.40237352  0.65537333     0.03190
C189        C  0.41946226  0.38155725  0.66962928    -0.12960
C190        C  0.41376202  0.37547793  0.69508669     0.00690
C191        C  0.38435284  0.38977996  0.70606841    -0.11490
C192        C  0.36062065  0.40928359  0.69163597     0.03180
C193        C  0.36686275  0.41520023  0.66628170    -0.10910
H194        H  0.44219943  0.37108174  0.66102329     0.08780
H195        H  0.37961284  0.38512378  0.72568896     0.06310
H196        H  0.34990474  0.43258395  0.65555787     0.06150
O197        O  0.31392153  0.32431538  0.95165004    -0.75230
O198        O  0.28280963  0.29099376  0.92339723    -0.54140
C199        C  0.30639027  0.31426611  0.92909235     0.78500
O200        O  0.30839675  0.17492099  0.03646321    -0.59830
O201        O  0.27769712  0.21182164  0.06334619    -0.52860
C202        C  0.29949601  0.18574399  0.05861758     0.70510
O203        O  0.31326452  0.17619883  0.95185882    -0.74390
O204        O  0.28304725  0.21015826  0.92411785    -0.54950
C205        C  0.30585849  0.18576196  0.92949497     0.76510
O206        O  0.30772851  0.32999144  0.03678235    -0.59530
O207        O  0.27650915  0.29489212  0.06372165    -0.52650
C208        C  0.29807631  0.32093232  0.05889057     0.73110
Zr209      Zr  0.29372656  0.30979445  0.99400027     2.54710
O210        O  0.35391656  0.30943179  0.99647982    -0.80100
O211        O  0.29192698  0.38000428  0.99288598    -0.93520
Zr212      Zr  0.29371025  0.19344809  0.99379740     2.64680
O213        O  0.35402813  0.19384393  0.99455036    -0.98470
O214        O  0.29213510  0.12317539  0.99289566    -0.80530
O215        O  0.29494753  0.25126502  0.97046954    -0.83890
O216        O  0.29390474  0.25199931  0.01735219    -2.18600
O217        O  0.17546903  0.32754415  0.03586156    -0.67280
O218        O  0.20530770  0.29167994  0.06269143    -0.51850
C219        C  0.18303098  0.31690070  0.05807284     0.71490
O220        O  0.17565145  0.17882705  0.94969530    -0.60190
O221        O  0.20861608  0.21146017  0.92302191    -0.52170
C222        C  0.18477249  0.18823651  0.92753890     0.73290
O223        O  0.17549613  0.17616204  0.03417230    -0.71580
O224        O  0.20694408  0.20970490  0.06224559    -0.50260
C225        C  0.18419385  0.18529238  0.05656780     0.74680
O226        O  0.17794561  0.32713154  0.95058721    -0.66910
O227        O  0.20942405  0.29200686  0.92321636    -0.54110
C228        C  0.18702160  0.31728326  0.92826367     0.73060
Zr229      Zr  0.19392428  0.30991623  0.99318015     2.77540
O230        O  0.13362260  0.30951182  0.99181119    -0.97660
O231        O  0.19587463  0.38012758  0.99406712    -0.78480
Zr232      Zr  0.19421234  0.19358196  0.99219787     2.70070
O233        O  0.13400508  0.18980947  0.99263115    -0.79730
O234        O  0.19952404  0.12359222  0.99018134    -0.98810
Zr235      Zr  0.24535095  0.25144509  0.94710920     2.21500
Zr236      Zr  0.24260420  0.25197007  0.03909849     2.11130
O237        O  0.19265221  0.25182310  0.01603014    -2.47500
O238        O  0.19430986  0.25164957  0.96921148    -0.79520
O239        O  0.24324622  0.31088220  0.01720573    -0.71720
O240        O  0.24473275  0.19247477  0.96918238    -2.32680
O241        O  0.24445583  0.31069315  0.96996496    -2.28880
O242        O  0.24315257  0.19258262  0.01665603    -0.73480
H243        H  0.31237874  0.25225034  0.02871352     0.78520
H244        H  0.24500954  0.17056296  0.95782955     0.79610
H245        H  0.17343776  0.25173407  0.02683357     0.81830
H246        H  0.24478224  0.33242239  0.95890573     0.79440
H247        H  0.27579254  0.11648817  0.97984893     0.42470
H248        H  0.21294701  0.11705743  0.00491827     0.41440
H249        H  0.12658307  0.21705808  0.99347344     0.41120
H250        H  0.12671654  0.29394497  0.00625088     0.39060
H251        H  0.21498622  0.38644657  0.00486107     0.42190
H252        H  0.28005429  0.38601503  0.97732700     0.36970
H253        H  0.36049497  0.28379667  0.98967630     0.43090
H254        H  0.35981677  0.21073433  0.00891056     0.39500
H255        H  0.12705812  0.33626740  0.99636650     0.44420
H256        H  0.31513737  0.38771225  0.98960234     0.43150
H257        H  0.36027509  0.16753401  0.99975830     0.43280
H258        H  0.17704727  0.11397357  0.99414743     0.43640
C259        C  0.12525718  0.37937401  0.14929035     0.03190
C260        C  0.14037236  0.41027810  0.16184780    -0.12960
C261        C  0.13385375  0.41736155  0.18732267     0.00690
C262        C  0.11158612  0.39362417  0.20000319    -0.11490
C263        C  0.09664209  0.36264067  0.18738614     0.03180
C264        C  0.10277281  0.35619445  0.16201757    -0.10910
H265        H  0.15952718  0.42650627  0.15240784     0.08780
H266        H  0.10731942  0.39784745  0.21981947     0.06310
H267        H  0.09173277  0.33151485  0.15257417     0.06150
C268        C  0.35630233  0.13566379  0.15098723     0.03190
C269        C  0.37675207  0.16299027  0.16253161    -0.12960
C270        C  0.38298844  0.16104607  0.18811682     0.00690
C271        C  0.36922713  0.13111550  0.20219963    -0.11490
C272        C  0.34930203  0.10313100  0.19053771     0.03180
C273        C  0.34390821  0.10495330  0.16478105    -0.10910
H274        H  0.38639434  0.18690248  0.15190993     0.08780
H275        H  0.37303343  0.13045009  0.22214946     0.06310
H276        H  0.32680211  0.08490505  0.15597986     0.06150
C277        C  0.35531403  0.38060674  0.14977286     0.03190
C278        C  0.34344431  0.41329988  0.16274691    -0.12960
C279        C  0.34909400  0.41832318  0.18843136     0.00690
C280        C  0.36852661  0.39132603  0.20089927    -0.11490
C281        C  0.38103939  0.35890676  0.18795732     0.03180
C282        C  0.37448437  0.35364181  0.16252328    -0.10910
H283        H  0.32707200  0.43312021  0.15332259     0.08780
H284        H  0.37270129  0.39455822  0.22075856     0.06310
H285        H  0.38364987  0.32803956  0.15284598     0.06150
O286        O  0.18745158  0.43560475  0.19623630    -0.75230
O287        O  0.14600053  0.46581306  0.21820385    -0.54140
C288        C  0.15690142  0.44172078  0.20148053     0.78500
O289        O  0.29383583  0.43061108  0.29440619    -0.59830
O290        O  0.33452901  0.46494688  0.27483546    -0.52860
C291        C  0.32419972  0.43808751  0.28943002     0.70510
O292        O  0.18515664  0.43072178  0.29273180    -0.74390
O293        O  0.14499931  0.46474586  0.27254825    -0.54950
C294        C  0.15499045  0.43820785  0.28734318     0.76510
O295        O  0.29571918  0.43764757  0.19669978    -0.59530
O296        O  0.33626681  0.46661217  0.21985571    -0.52650
C297        C  0.32602030  0.44318141  0.20257590     0.73110
Zr298      Zr  0.24119777  0.45592174  0.20982178     2.54710
O299        O  0.24200932  0.38567002  0.21019171    -0.80100
O300        O  0.24296743  0.45891186  0.16451165    -0.93520
Zr301      Zr  0.23974990  0.45392050  0.28306451     2.64680
O302        O  0.23840463  0.38360115  0.28338495    -0.98470
O303        O  0.23909818  0.46026306  0.32833021    -0.80530
O304        O  0.20803043  0.45384894  0.24607901    -0.83890
O305        O  0.27289676  0.45409688  0.24659020    -2.18600
O306        O  0.29550265  0.08713619  0.20032463    -0.67280
O307        O  0.33644327  0.05516376  0.22088373    -0.51850
C308        C  0.32598159  0.08003472  0.20507504     0.71490
O309        O  0.18457923  0.09078661  0.29354678    -0.60190
O310        O  0.14448935  0.05792199  0.27207698    -0.52170
C311        C  0.15450714  0.08463377  0.28720324     0.73290
O312        O  0.29229642  0.09213468  0.29560605    -0.71580
O313        O  0.33354980  0.06050240  0.27409224    -0.50260
C314        C  0.32264513  0.08697531  0.28932476     0.74680
O315        O  0.18578283  0.08735381  0.19934905    -0.66910
O316        O  0.14455484  0.05489245  0.21946921    -0.54110
C317        C  0.15518358  0.08005574  0.20386557     0.73060
Zr318      Zr  0.24046283  0.06765917  0.21196951     2.77540
O319        O  0.23907568  0.13796326  0.21289990    -0.97660
O320        O  0.24337273  0.06211157  0.16679614    -0.78480
Zr321      Zr  0.23906032  0.06520425  0.28550167     2.70070
O322        O  0.23838924  0.13410726  0.29502836    -0.79730
O323        O  0.23741864  0.05013172  0.32964301    -0.98810
Zr324      Zr  0.17455731  0.01061145  0.24652618     2.21500
Zr325      Zr  0.30603410  0.01122090  0.24803011     2.11130
O326        O  0.27179416  0.06768692  0.24885054    -2.47500
O327        O  0.20762007  0.06748896  0.24845583    -0.79520
O328        O  0.27423417  0.01198338  0.21064920    -0.71720
O329        O  0.20550249  0.00951118  0.28451986    -2.32680
O330        O  0.20763162  0.01163728  0.20957686    -2.28880
O331        O  0.27343437  0.00982913  0.28543542    -0.73480
H332        H  0.28659070  0.43120459  0.24604044     0.78520
H333        H  0.19096501  0.00926694  0.29887979     0.79610
H334        H  0.28489862  0.09096145  0.24892754     0.81830
H335        H  0.19412861  0.01188800  0.19478186     0.79440
H336        H  0.21542171  0.46315549  0.33293577     0.42470
H337        H  0.26094015  0.04985257  0.33478465     0.41440
H338        H  0.23897953  0.14647309  0.27852307     0.41120
H339        H  0.25934999  0.14582206  0.22193777     0.39060
H340        H  0.26196787  0.04408728  0.16335931     0.42190
H341        H  0.22287153  0.47350949  0.15987293     0.36970
H342        H  0.22926739  0.37887540  0.22531233     0.43090
H343        H  0.25676967  0.37522563  0.27223615     0.39500
H344        H  0.24324716  0.14543243  0.19543605     0.44420
H345        H  0.23859414  0.43211808  0.15874360     0.43150
H346        H  0.24571765  0.37659437  0.30030580     0.43280
H347        H  0.22805407  0.07360063  0.33777592     0.43640
O348        O  0.04268632  0.34532688  0.19528343    -0.75230
O349        O  0.08376319  0.31065878  0.21389196    -0.54140
C350        C  0.07303307  0.33797052  0.19996507     0.78500
O351        O  0.43627952  0.33568676  0.29254484    -0.59830
O352        O  0.39523044  0.30690780  0.26984965    -0.52860
C353        C  0.40580763  0.33037098  0.28703659     0.70510
O354        O  0.04463639  0.33646429  0.29127501    -0.74390
O355        O  0.08553117  0.30749696  0.26803425    -0.54950
C356        C  0.07503283  0.33081785  0.28534765     0.76510
O357        O  0.43518311  0.34114265  0.19423634    -0.59530
O358        O  0.39509365  0.30749767  0.21493181    -0.52650
C359        C  0.40504020  0.33383131  0.19985384     0.73110
Zr360      Zr  0.98946397  0.31878439  0.20485691     2.54710
O361        O  0.98742031  0.38888817  0.20294146    -0.80100
O362        O  0.49011920  0.31051246  0.15970636    -0.93520
Zr363      Zr  0.99038541  0.31735778  0.27815580     2.64680
O364        O  0.99101265  0.38763073  0.27723600    -0.98470
O365        O  0.49021247  0.31538113  0.32350338    -0.80530
O366        O  0.02228617  0.31964898  0.24123629    -0.83890
O367        O  0.45757946  0.31906217  0.24194964    -2.18600
O368        O  0.43664080  0.18303105  0.19231772    -0.67280
O369        O  0.39620006  0.21363531  0.21533541    -0.51850
C370        C  0.40652461  0.18804581  0.19932029     0.71490
O371        O  0.04669258  0.18691465  0.28721097    -0.60190
O372        O  0.08709768  0.21980703  0.26638008    -0.52170
C373        C  0.07705237  0.19470250  0.28215281     0.73290
O374        O  0.43664716  0.18497486  0.28833704    -0.71580
O375        O  0.39531206  0.21772090  0.26875221    -0.50260
C376        C  0.40606380  0.19243279  0.28415226     0.74680
O377        O  0.04569318  0.18293881  0.19216698    -0.66910
O378        O  0.08573987  0.21616500  0.21348346    -0.54110
C379        C  0.07590547  0.18949470  0.19817440     0.73060
Zr380      Zr  0.49098014  0.20723807  0.20243499     2.77540
O381        O  0.49305418  0.13722773  0.19737071    -0.97660
O382        O  0.49108329  0.21805429  0.15772385    -0.78480
Zr383      Zr  0.49125324  0.20550319  0.27589548     2.70070
O384        O  0.49248349  0.13524684  0.27513087    -0.79730
O385        O  0.48955790  0.21095013  0.32110618    -0.98810
Zr386      Zr  0.05601691  0.26319365  0.23991805     2.21500
Zr387      Zr  0.42473004  0.26185503  0.24126844     2.11130
O388        O  0.45892427  0.20526515  0.23953670    -2.47500
O389        O  0.02335355  0.20594218  0.23897229    -0.79520
O390        O  0.45632332  0.26259627  0.20334824    -0.71720
O391        O  0.02399840  0.26169866  0.27747735    -2.32680
O392        O  0.02398108  0.26354065  0.20255707    -2.28880
O393        O  0.45749612  0.26113688  0.27809959    -0.73480
H394        H  0.44381661  0.34189191  0.24264398     0.78520
H395        H  0.03796446  0.26143352  0.29202459     0.79610
H396        H  0.44574665  0.18203762  0.23958897     0.81830
H397        H  0.03807247  0.26405488  0.18795548     0.79440
H398        H  0.00897365  0.29830891  0.32777922     0.42470
H399        H  0.47461400  0.23305681  0.32469524     0.41440
H400        H  0.00038383  0.12832766  0.25814068     0.41120
H401        H  0.47619773  0.12729540  0.20910271     0.39060
H402        H  0.46835431  0.22705895  0.15405183     0.42190
H403        H  0.01387216  0.30922296  0.15504866     0.36970
H404        H  0.98722639  0.39759730  0.22059687     0.43090
H405        H  0.46871917  0.39513108  0.27139552     0.39500
H406        H  0.48390202  0.13185053  0.18059764     0.44420
H407        H  0.98249102  0.33566949  0.15334143     0.43150
H408        H  0.99138885  0.39577935  0.29499295     0.43280
H409        H  0.47684431  0.18812604  0.32652181     0.43640
C410        C  0.12762951  0.13634057  0.14972330     0.03190
C411        C  0.13663127  0.10393596  0.16350715    -0.12960
C412        C  0.13191450  0.10330154  0.18939230     0.00690
C413        C  0.11302239  0.13244170  0.20103017    -0.11490
C414        C  0.10024895  0.16283146  0.18694219     0.03180
C415        C  0.10809499  0.16509963  0.16145656    -0.10910
H416        H  0.14985382  0.08033533  0.15456951     0.08780
H417        H  0.10883906  0.13193511  0.22095797     0.06310
H418        H  0.09960085  0.18969128  0.15099747     0.06150
C419        C  0.10687089  0.14034940  0.33591222     0.03190
C420        C  0.09779567  0.17260887  0.32210229    -0.12960
C421        C  0.10090034  0.17204942  0.29610452     0.00690
C422        C  0.11815754  0.14191331  0.28419427    -0.11490
C423        C  0.13072401  0.11157328  0.29825594     0.03180
C424        C  0.12453638  0.11042391  0.32390723    -0.10910
H425        H  0.08537389  0.19673204  0.33112350     0.08780
H426        H  0.12121393  0.14165574  0.26414381     0.06310
H427        H  0.13301296  0.08577794  0.33433494     0.06150
C428        C  0.37232339  0.13861879  0.33848759     0.03190
C429        C  0.35029248  0.11318955  0.32665092    -0.12960
C430        C  0.34579636  0.11424896  0.30086353     0.00690
C431        C  0.36157941  0.14283809  0.28686645    -0.11490
C432        C  0.38269452  0.16945259  0.29872246     0.03180
C433        C  0.38788038  0.16717033  0.32453295    -0.10910
H434        H  0.33876097  0.09038638  0.33725593     0.08780
H435        H  0.35847809  0.14339036  0.26684267     0.06310
H436        H  0.40671745  0.18503274  0.33324883     0.06150
C437        C  0.10566008  0.39210020  0.33819993     0.03190
C438        C  0.12431316  0.41917337  0.32494237    -0.12960
C439        C  0.13083452  0.41363404  0.29948924     0.00690
C440        C  0.11783890  0.38168191  0.28668313    -0.11490
C441        C  0.09816134  0.35521083  0.29936761     0.03180
C442        C  0.09322491  0.35973416  0.32521057    -0.10910
H443        H  0.13354021  0.44492092  0.33426168     0.08780
H444        H  0.12183689  0.37842626  0.26676773     0.06310
H445        H  0.07754168  0.33932733  0.33480641     0.06150
C446        C  0.37736692  0.39523753  0.33930989     0.03190
C447        C  0.39006348  0.36264303  0.32676185    -0.12960
C448        C  0.38291910  0.35552510  0.30142096     0.00690
C449        C  0.36141538  0.38062534  0.28905858    -0.11490
C450        C  0.34821806  0.41309878  0.30168158     0.03200
C451        C  0.35591780  0.42001744  0.32679109    -0.10910
H452        H  0.40839290  0.34506811  0.33601929     0.08780
H453        H  0.35640683  0.37619159  0.26940258     0.06310
H454        H  0.34648065  0.44569158  0.33623666     0.06150
O455        O  0.06177585  0.45126413  0.53762739    -0.75230
O456        O  0.03049394  0.48897001  0.56382427    -0.54140
C457        C  0.05203130  0.46238308  0.55950454     0.78500
O458        O  0.06333160  0.09993263  0.45086648    -0.59830
O459        O  0.03316361  0.06320044  0.42360094    -0.52860
C460        C  0.05495518  0.08896852  0.42883090     0.70510
O461        O  0.06671283  0.09904017  0.53487622    -0.74390
O462        O  0.03242164  0.06990942  0.56274319    -0.54950
C463        C  0.05742761  0.09072682  0.55711761     0.76510
O464        O  0.06227021  0.44467787  0.45295030    -0.59530
O465        O  0.03201543  0.47797177  0.42460255    -0.52650
C466        C  0.05332672  0.45217851  0.43053765     0.73110
Zr467      Zr  0.04661961  0.46785155  0.49479447     2.54710
O468        O  0.10687370  0.47059648  0.49461107    -0.80100
O469        O  0.04643283  0.39761123  0.49574463    -0.93520
Zr470      Zr  0.04614357  0.08418442  0.49300611     2.64680
O471        O  0.10640654  0.08769853  0.49241973    -0.98470
O472        O  0.04179345  0.15433331  0.49364321    -0.80530
O473        O  0.04710221  0.02752977  0.51717689    -0.83890
O474        O  0.04767869  0.02446362  0.47040750    -2.18600
O475        O  0.43042992  0.44646271  0.45219119    -0.67280
O476        O  0.46129514  0.48045056  0.42470927    -0.51850
C477        C  0.43897041  0.45534559  0.42974602     0.71490
O478        O  0.42320929  0.09582355  0.53414322    -0.60190
O479        O  0.45869980  0.06958044  0.56220333    -0.52170
C480        C  0.43257786  0.08836474  0.55648672     0.73290
O481        O  0.42878767  0.09760988  0.44926969    -0.71580
O482        O  0.46296150  0.06362665  0.42330775    -0.50260
C483        C  0.43866173  0.08670937  0.42734045     0.74680
O484        O  0.43134548  0.45151148  0.53851686    -0.66910
O485        O  0.46137359  0.49071457  0.56390170    -0.54110
C486        C  0.44012716  0.46390571  0.56040435     0.73060
Zr487      Zr  0.44636758  0.46756260  0.49478032     2.77540
O488        O  0.38609119  0.47040431  0.49593516    -0.97660
O489        O  0.44635013  0.39734314  0.49542226    -0.78480
Zr490      Zr  0.44635821  0.08411776  0.49219848     2.70070
O491        O  0.38648137  0.09128685  0.48960358    -0.79730
O492        O  0.45228672  0.15401559  0.49392654    -0.98810
Zr493      Zr  0.49617922  0.02954519  0.53890563     2.21500
Zr494      Zr  0.49740392  0.02267033  0.44778933     2.11130
O495        O  0.44633415  0.02408625  0.47009281    -2.47500
O496        O  0.44562837  0.02759018  0.51673667    -0.79520
O497        O  0.49678275  0.46535367  0.47135908    -0.71720
O498        O  0.49582928  0.08757156  0.51618773    -2.32680
O499        O  0.49631334  0.46872548  0.51798659    -2.28880
O500        O  0.49673906  0.08322596  0.46896064    -0.73480
H501        H  0.06666369  0.02364162  0.45936940     0.78520
H502        H  0.49549921  0.10989367  0.52720560     0.79610
H503        H  0.42767004  0.02325142  0.45892201     0.81830
H504        H  0.49624639  0.44768946  0.52958003     0.79440
H505        H  0.03512600  0.16122316  0.51092768     0.42470
H506        H  0.46584792  0.16015591  0.47908315     0.41440
H507        H  0.37790497  0.06464652  0.49104139     0.41120
H508        H  0.37987579  0.48418982  0.48062688     0.39060
H509        H  0.46668356  0.38973934  0.48616109     0.42190
H510        H  0.03089722  0.39116141  0.50939456     0.36970
H511        H  0.11220749  0.99330347  0.50526938     0.43090
H512        H  0.11346322  0.06826202  0.47974352     0.39500
H513        H  0.37897496  0.44342270  0.49284578     0.44420
H514        H  0.06856865  0.39060971  0.50214835     0.43150
H515        H  0.11156965  0.11293099  0.48491883     0.43280
H516        H  0.42992062  0.16396286  0.49003224     0.43640
C517        C  0.43669386  0.44363990  0.38385485    -0.20240
C518        C  0.42261397  0.43656381  0.40749953    -0.06810
C519        C  0.39327139  0.41388783  0.40846419     0.14060
C520        C  0.37889805  0.40020075  0.38602299    -0.20300
C521        C  0.39306007  0.40852606  0.36278082    -0.06820
C522        C  0.42240425  0.43024238  0.36176393     0.14050
C523        C  0.43856226  0.43993863  0.33720004    -0.23650
H524        H  0.45894593  0.46078701  0.38228155     0.15330
H525        H  0.35635762  0.38327573  0.38656220     0.15360
C526        C  0.37649570  0.40445027  0.43273529    -0.23600
H527        H  0.46134082  0.45747141  0.33974702     0.05580
H528        H  0.42110472  0.45673601  0.32567337     0.08800
H529        H  0.44561521  0.41298922  0.32704669     0.08800
H530        H  0.36894568  0.43149094  0.44259283     0.08780
H531        H  0.39357932  0.38763603  0.44455805     0.08780
H532        H  0.35386292  0.38679598  0.42981331     0.05560
C533        C  0.06105970  0.39576105  0.37024088    -0.20240
C534        C  0.09476277  0.40071684  0.36433090    -0.06810
C535        C  0.11598393  0.41698212  0.38272800     0.14060
C536        C  0.10217791  0.43238312  0.40487181    -0.20300
C537        C  0.06811900  0.42975387  0.40969266    -0.06820
C538        C  0.04784289  0.40891336  0.39297086     0.14050
C539        C  0.01227381  0.40021310  0.39922218    -0.23650
H540        H  0.04450434  0.38279776  0.35669459     0.15330
H541        H  0.11798573  0.44718726  0.41818582     0.15360
C542        C  0.15314541  0.41799914  0.37993252    -0.23600
H543        H  0.99979772  0.38361449  0.38410037     0.05580
H544        H  0.49857054  0.42737819  0.40230513     0.08800
H545        H  0.01109583  0.38305529  0.41649835     0.08800
H546        H  0.16165663  0.44839844  0.37891562     0.08780
H547        H  0.16212780  0.40178552  0.36326403     0.08780
H548        H  0.16469197  0.40437291  0.39634896     0.05560
C549        C  0.40431093  0.09189108  0.36157276    -0.20240
C550        C  0.38722581  0.12684599  0.36223959    -0.06810
C551        C  0.38630595  0.14909437  0.38447774     0.14060
C552        C  0.40304569  0.13552082  0.40566931    -0.20300
C553        C  0.42074479  0.10035732  0.40487078    -0.06820
C554        C  0.42066639  0.07809615  0.38234194     0.14050
C555        C  0.43616917  0.03866874  0.37981628    -0.23650
H556        H  0.40499046  0.07514893  0.34431720     0.15330
H557        H  0.40255750  0.15256816  0.42276273     0.15360
C558        C  0.36730299  0.18647700  0.38591190    -0.23600
H559        H  0.43063028  0.02447863  0.36161213     0.05580
H560        H  0.42576516  0.02016606  0.39453704     0.08800
H561        H  0.46354730  0.04049552  0.38111207     0.08800
H562        H  0.34089369  0.18111093  0.38134389     0.08780
H563        H  0.37777307  0.20728935  0.37249563     0.08780
H564        H  0.36843728  0.19981240  0.40483715     0.05560
C565        C  0.11625720  0.11960190  0.37949701    -0.20240
C566        C  0.09451100  0.13499389  0.36176874    -0.06810
C567        C  0.06029404  0.13862224  0.36787355     0.14060
C568        C  0.04891540  0.12548320  0.39080544    -0.20300
C569        C  0.07025998  0.10803354  0.40757486    -0.06820
C570        C  0.10440317  0.10546289  0.40222700     0.14050
C571        C  0.12783027  0.08558272  0.41962342    -0.23650
H572        H  0.14235194  0.11668046  0.37494513     0.15330
H573        H  0.02270022  0.12722884  0.39532004     0.15360
C574        C  0.03473177  0.15351837  0.35005138    -0.23600
H575        H  0.15351064  0.08475548  0.41207979     0.05580
H576        H  0.11962922  0.05538202  0.42252001     0.08800
H577        H  0.12826836  0.10122963  0.43780075     0.08800
H578        H  0.03681729  0.13832343  0.33175440     0.08780
H579        H  0.03764346  0.18505580  0.34798437     0.08780
H580        H  0.00909926  0.14889627  0.35703218     0.05560
C581        C  0.17676523  0.32103381  0.10402320    -0.20240
C582        C  0.16601407  0.33396767  0.08058395    -0.06810
C583        C  0.14032334  0.36209936  0.08002353     0.14060
C584        C  0.12728132  0.37695097  0.10270092    -0.20300
C585        C  0.13950911  0.36468703  0.12567037    -0.06820
C586        C  0.16470887  0.33670829  0.12630753     0.14050
C587        C  0.17922793  0.32340690  0.15061581    -0.23650
H588        H  0.19514942  0.29839997  0.10526847     0.15330
H589        H  0.10749511  0.39814171  0.10256116     0.15360
C590        C  0.12600609  0.37619736  0.05596572    -0.23600
H591        H  0.19931820  0.30183248  0.14765251     0.05580
H592        H  0.15973312  0.30987226  0.16220919     0.08800
H593        H  0.18991356  0.34843368  0.16092507     0.08800
H594        H  0.11553614  0.35151105  0.04519971     0.08780
H595        H  0.14550552  0.39065789  0.04484989     0.08780
H596        H  0.10572690  0.39742201  0.05926559     0.05560
C597        C  0.34731113  0.34494957  0.08235118    -0.20240
C598        C  0.31273495  0.34133722  0.08063744    -0.06810
C599        C  0.29265345  0.35506010  0.10059195     0.14060
C600        C  0.30754796  0.36957644  0.12222460    -0.20300
C601        C  0.34209374  0.37088778  0.12468312    -0.06820
C602        C  0.36228930  0.35965463  0.10413447     0.14050
C603        C  0.39948806  0.36307757  0.10445569    -0.23650
H604        H  0.36279451  0.33510618  0.06693959     0.15330
H605        H  0.29198565  0.37825414  0.13787677     0.15360
C606        C  0.25540664  0.35406093  0.09946104    -0.23600
H607        H  0.40775199  0.38093122  0.08858881     0.05580
H608        H  0.41080688  0.33393755  0.10254112     0.08800
H609        H  0.40885219  0.37706094  0.12172724     0.08800
H610        H  0.24705191  0.32369658  0.09932364     0.08780
H611        H  0.24665913  0.36873261  0.08246383     0.08780
H612        H  0.24373296  0.36864600  0.11588214     0.05560
C613        C  0.18852385  0.15136024  0.09611716    -0.20240
C614        C  0.16787186  0.16642987  0.07786530    -0.06810
C615        C  0.13334138  0.16788476  0.08216150     0.14060
C616        C  0.12056483  0.15570031  0.10524022    -0.20300
C617        C  0.14154590  0.14242059  0.12418768    -0.06820
C618        C  0.17613445  0.13959422  0.11917219     0.14050
C619        C  0.20095914  0.12662124  0.13819868    -0.23650
H620        H  0.21498132  0.15017612  0.09255518     0.15330
H621        H  0.09417741  0.15788118  0.10886105     0.15360
C622        C  0.11024803  0.18431744  0.06310156    -0.23600
H623        H  0.22676112  0.13028285  0.13149790     0.05580
H624        H  0.19821959  0.09541376  0.14149659     0.08800
H625        H  0.19806069  0.14353313  0.15581466     0.08800
H626        H  0.11154667  0.16669005  0.04568074     0.08780
H627        H  0.11738255  0.21453023  0.05903407     0.08780
H628        H  0.08413832  0.18441873  0.06975708     0.05560
C629        C  0.29528171  0.16829034  0.10284282    -0.20240
C630        C  0.31450085  0.16779555  0.08088071    -0.06810
C631        C  0.34770899  0.15442519  0.08189755     0.14060
C632        C  0.36070295  0.14263956  0.10488780    -0.20300
C633        C  0.34142747  0.14437685  0.12669719    -0.06820
C634        C  0.30845636  0.15771915  0.12569323     0.14050
C635        C  0.28764476  0.16317091  0.14896927    -0.23650
H636        H  0.26989667  0.17848311  0.10239305     0.15330
H637        H  0.38622366  0.13305682  0.10603310     0.15360
C638        C  0.37006494  0.15428663  0.05935032    -0.23600
H639        H  0.26379727  0.17783585  0.14507529     0.05580
H640        H  0.30105276  0.18148768  0.16273247     0.08800
H641        H  0.28203743  0.13479405  0.15726460     0.08800
H642        H  0.37202785  0.18395375  0.05196788     0.08780
H643        H  0.36005348  0.13449852  0.04480018     0.08780
H644        H  0.39546604  0.14428223  0.06386517     0.05560
C645        C  0.39288055  0.40285815  0.60870045    -0.20240
C646        C  0.40673714  0.41745383  0.63087031    -0.06810
C647        C  0.42940452  0.44809621  0.62986084     0.14060
C648        C  0.43928054  0.46196621  0.60672940    -0.20300
C649        C  0.42655331  0.44702451  0.58401396    -0.06820
C650        C  0.40235455  0.41736393  0.58521654     0.14050
C651        C  0.38617488  0.40102402  0.56217240    -0.23650
H652        H  0.37465440  0.38000839  0.60981053     0.15330
H653        H  0.45720396  0.48517541  0.60675010     0.15360
C654        C  0.44252199  0.46719195  0.65334501    -0.23600
H655        H  0.36738591  0.37881394  0.56676674     0.05580
H656        H  0.40509954  0.38713986  0.54989977     0.08800
H657        H  0.37340780  0.42442191  0.55204749     0.08800
H658        H  0.45669300  0.44620484  0.66447818     0.08780
H659        H  0.42161064  0.47834851  0.66488880     0.08780
H660        H  0.45919704  0.49176479  0.64919076     0.05560
C661        C  0.39701379  0.06687309  0.58990704    -0.20240
C662        C  0.41121437  0.09832691  0.57778918    -0.06810
C663        C  0.41283659  0.13446168  0.59012489     0.14060
C664        C  0.40218894  0.13749829  0.61503579    -0.20300
C665        C  0.39100104  0.10495694  0.62805537    -0.06820
C666        C  0.38736344  0.06933127  0.61494314     0.14050
C667        C  0.37654507  0.03267281  0.62746178    -0.23650
H668        H  0.39640741  0.03907553  0.58030948     0.15330
H669        H  0.40464345  0.16494706  0.62482888     0.15360
C670        C  0.42763305  0.16947104  0.57809386    -0.23600
H671        H  0.37937358  0.00702540  0.61497137     0.05580
H672        H  0.34996651  0.03422455  0.63257305     0.08800
H673        H  0.39172608  0.02775933  0.64425954     0.08800
H674        H  0.40912033  0.19322672  0.57825923     0.08780
H675        H  0.43517660  0.16387297  0.55846971     0.08780
H676        H  0.44979713  0.17899642  0.58868379     0.05560
C677        C  0.10662080  0.41990956  0.61014415    -0.20240
C678        C  0.08268122  0.41280953  0.62883673    -0.06810
C679        C  0.04874411  0.41969032  0.62323911     0.14060
C680        C  0.04020359  0.43347641  0.59980662    -0.20300
C681        C  0.06407832  0.44226647  0.58181958    -0.06820
C682        C  0.09776223  0.43504832  0.58684340     0.14050
C683        C  0.12439496  0.44516114  0.56832600    -0.23650
H684        H  0.13253860  0.41466075  0.61400980     0.15330
H685        H  0.01431171  0.43878518  0.59568719     0.15360
C686        C  0.02091174  0.41576916  0.64193925    -0.23600
H687        H  0.14952776  0.43909690  0.57564195     0.05580
H688        H  0.12298163  0.97637454  0.56402825     0.08800
H689        H  0.12113202  0.42792765  0.55091731     0.08800
H690        H  0.02713721  0.43078578  0.65971231     0.08780
H691        H  0.01481619  0.38506065  0.64495605     0.08780
H692        H  0.99782553  0.42894952  0.63500682     0.05560
C693        C  0.09776372  0.07320195  0.58819200    -0.20240
C694        C  0.07802422  0.10224217  0.57823317    -0.06810
C695        C  0.07184876  0.13627349  0.59206743     0.14060
C696        C  0.08470829  0.13979519  0.61622854    -0.20300
C697        C  0.10120886  0.10869257  0.62754657    -0.06820
C698        C  0.10881910  0.07527938  0.61283336     0.14050
C699        C  0.12549904  0.03987785  0.62310142    -0.23650
H700        H  0.10178979  0.04693217  0.57730908     0.15330
H701        H  0.07943618  0.16577493  0.62705534     0.15360
C702        C  0.04979104  0.16744668  0.58201647    -0.23600
H703        H  0.12469568  0.01508639  0.60974283     0.05580
H704        H  0.11283403  0.03056476  0.64039821     0.08800
H705        H  0.15205900  0.04567067  0.62657992     0.08800
H706        H  0.52467619  0.15564667  0.57837093     0.08780
H707        H  0.06039465  0.17838273  0.56435849     0.08780
H708        H  0.04720224  0.19211467  0.59535887     0.05560
C709        C  0.13874380  0.14769314  0.90994256    -0.20240
C710        C  0.16659674  0.17145264  0.90568999    -0.06810
C711        C  0.17624431  0.17857556  0.88055234     0.14060
C712        C  0.15846148  0.16148297  0.86109497    -0.20300
C713        C  0.13153970  0.13725180  0.86551514    -0.06820
C714        C  0.12116579  0.13049601  0.89010059     0.14050
C715        C  0.09210201  0.10464654  0.89529798    -0.23650
H716        H  0.13075452  0.14215544  0.92884874     0.15330
H717        H  0.16600446  0.16644441  0.84197445     0.15360
C718        C  0.20532921  0.20351536  0.87337950    -0.23600
H719        H  0.08731911  0.10210120  0.91560146     0.05580
H720        H  0.09702150  0.07531094  0.88748953     0.08800
H721        H  0.06950706  0.11656659  0.88654069     0.08800
H722        H  0.22843777  0.19153427  0.88122032     0.08780
H723        H  0.20118892  0.23357147  0.88012095     0.08780
H724        H  0.20895831  0.20477150  0.85287650     0.05560
C725        C  0.35043251  0.32552813  0.86637492    -0.20240
C726        C  0.35890371  0.36468716  0.86701634    -0.06810
C727        C  0.35218172  0.38679668  0.88880974     0.14060
C728        C  0.33608683  0.36940441  0.90915662    -0.20300
C729        C  0.32591719  0.33057492  0.90801552    -0.06820
C730        C  0.33397433  0.30821520  0.88638689     0.14050
C731        C  0.32597857  0.26584084  0.88420690    -0.23650
H732        H  0.35571148  0.30865990  0.84962306     0.15330
H733        H  0.33045090  0.38656883  0.92569876     0.15360
C734        C  0.36212638  0.42859851  0.89060852    -0.23600
H735        H  0.33659799  0.25249930  0.86697324     0.05580
H736        H  0.29877848  0.26153206  0.88345913     0.08800
H737        H  0.33657378  0.25050222  0.90031920     0.08800
H738        H  0.34909215  0.44547692  0.87624438     0.08780
H739        H  0.38929088  0.43116264  0.88770707     0.08780
H740        H  0.35586993  0.44143404  0.90913636     0.05560
C741        C  0.16893524  0.35438147  0.86316455    -0.20240
C742        C  0.13618683  0.36769596  0.86570974    -0.06810
C743        C  0.12054666  0.36593469  0.88928122     0.14060
C744        C  0.13774985  0.34971896  0.90941266    -0.20300
C745        C  0.17044028  0.33576935  0.90669753    -0.06820
C746        C  0.18649825  0.33932933  0.88321646     0.14050
C747        C  0.22255798  0.32903163  0.87899844    -0.23650
H748        H  0.18107969  0.35599033  0.84513761     0.15330
H749        H  0.12545277  0.34771288  0.92734248     0.15360
C750        C  0.08634646  0.38229918  0.89353786    -0.23600
H751        H  0.23143384  0.33773882  0.86028363     0.05580
H752        H  0.22633090  0.29741500  0.88010567     0.08800
H753        H  0.23818377  0.34419328  0.89300735     0.08800
H754        H  0.06791886  0.36603612  0.88235299     0.08780
H755        H  0.08588679  0.41313911  0.88821333     0.08780
H756        H  0.07871316  0.38055996  0.91340014     0.05560
C757        C  0.30980301  0.17150507  0.88428059    -0.20240
C758        C  0.32411061  0.16780859  0.90795243    -0.06810
C759        C  0.35542441  0.14911408  0.90972444     0.14060
C760        C  0.37060416  0.13384060  0.88797447    -0.20300
C761        C  0.35556837  0.13722659  0.86464425    -0.06820
C762        C  0.32523406  0.15732737  0.86272405     0.14050
C763        C  0.30931128  0.16516464  0.83787476    -0.23650
H764        H  0.28631113  0.18617440  0.88237661     0.15330
H765        H  0.39417720  0.11895324  0.88915175     0.15360
C766        C  0.37348759  0.14570496  0.93408299    -0.23600
H767        H  0.28727358  0.18425729  0.83986232     0.05580
H768        H  0.30079494  0.13793694  0.82894679     0.08800
H769        H  0.32732981  0.17970311  0.82545952     0.08800
H770        H  0.35895862  0.12775472  0.94713237     0.08780
H771        H  0.37758066  0.17486634  0.94236496     0.08780
H772        H  0.39811670  0.13176155  0.93158441     0.05560
O773        O  0.42662687  0.68830942  0.79868836    -0.75230
O774        O  0.45434264  0.63918880  0.77873154    -0.54140
C775        C  0.43150262  0.65239828  0.79364097     0.78500
O776        O  0.42968635  0.81252972  0.70330437    -0.59830
O777        O  0.45709253  0.86069162  0.72433874    -0.52860
C778        C  0.43516358  0.84817458  0.70857890     0.70510
O779        O  0.42987269  0.68573587  0.70418960    -0.74390
O780        O  0.45647929  0.63810551  0.72538996    -0.54950
C781        C  0.43497026  0.65025197  0.70953953     0.76510
O782        O  0.42873488  0.81489763  0.80015891    -0.59530
O783        O  0.45531586  0.86282836  0.77918809    -0.52650
C784        C  0.43322324  0.85047436  0.79483010     0.73110
Zr785      Zr  0.44828092  0.75124132  0.78900051     2.54710
O786        O  0.38805985  0.75275640  0.79148360    -0.80100
O787        O  0.45482405  0.75182178  0.83408838    -0.93520
Zr788      Zr  0.44894146  0.74956067  0.71568761     2.64680
O789        O  0.38858488  0.74831626  0.71560062    -0.98470
O790        O  0.45520384  0.74906380  0.67051720    -0.80530
O791        O  0.44781559  0.71258055  0.75235743    -0.83890
O792        O  0.44811265  0.78826987  0.75232851    -2.18600
O793        O  0.06299590  0.81431446  0.80067004    -0.67280
O794        O  0.03739954  0.86234672  0.77924400    -0.51850
C795        C  0.05895223  0.84990970  0.79510056     0.71490
O796        O  0.06379246  0.68483311  0.70521087    -0.60190
O797        O  0.03536170  0.63739213  0.72536328    -0.52170
C798        C  0.05776975  0.64938932  0.71003152     0.73290
O799        O  0.06532021  0.81103555  0.70387682    -0.71580
O800        O  0.03729540  0.85952286  0.72450396    -0.50260
C801        C  0.05964787  0.84672918  0.70895151     0.74680
O802        O  0.06370470  0.68695827  0.79946432    -0.66910
O803        O  0.03633035  0.63837690  0.77900863    -0.54110
C804        C  0.05867142  0.65114212  0.79425602     0.73060
Zr805      Zr  0.04360744  0.75052602  0.78937777     2.77540
O806        O  0.10390997  0.74929897  0.79158748    -0.97660
O807        O  0.03631938  0.75073273  0.83443699    -0.78480
Zr808      Zr  0.04465025  0.74880318  0.71616525     2.70070
O809        O  0.10495186  0.74827733  0.71540943    -0.79730
O810        O  0.03844919  0.74661028  0.67106837    -0.98810
Zr811      Zr  0.99592496  0.67232339  0.75266602     2.21500
Zr812      Zr  0.49661121  0.82810209  0.75243270     2.11130
O813        O  0.04485122  0.78757628  0.75273927    -2.47500
O814        O  0.04450468  0.71172695  0.75276747    -0.79520
O815        O  0.49606437  0.79070068  0.78978180    -0.71720
O816        O  0.99665710  0.70977440  0.71538662    -2.32680
O817        O  0.99574315  0.71124163  0.79005232    -2.28880
O818        O  0.49699141  0.78872311  0.71526476    -0.73480
H819        H  0.42829734  0.80392368  0.75221680     0.78520
H820        H  0.99687666  0.69322140  0.70073698     0.79610
H821        H  0.06479631  0.80292041  0.75270385     0.81830
H822        H  0.99548387  0.69533468  0.80467653     0.79440
H823        H  0.46294836  0.72268561  0.66610238     0.42470
H824        H  0.02861876  0.77188528  0.66687399     0.41440
H825        H  0.11132766  0.74750882  0.73317673     0.41120
H826        H  0.11144949  0.77050924  0.78079157     0.39060
H827        H  0.02643682  0.77625974  0.83850529     0.42190
H828        H  0.45783187  0.72440757  0.83852069     0.36970
H829        H  0.38072059  0.74680938  0.77428198     0.43090
H830        H  0.38169846  0.77062209  0.72617587     0.39500
H831        H  0.10912933  0.75818450  0.80874229     0.44420
H832        H  0.43257205  0.75866281  0.84067607     0.43150
H833        H  0.38234589  0.75555679  0.69847949     0.43280
H834        H  0.06140335  0.74778601  0.66451584     0.43640
C835        C  0.37098067  0.61929731  0.84223748     0.03190
C836        C  0.39908785  0.63552827  0.83123269    -0.12960
C837        C  0.40808891  0.62608990  0.80640045     0.00690
C838        C  0.38825066  0.59965827  0.79281889    -0.11490
C839        C  0.35977363  0.58350592  0.80405345     0.03180
C840        C  0.35295322  0.59154329  0.82913656    -0.10910
H841        H  0.41212571  0.65827053  0.84120957     0.08780
H842        H  0.39290606  0.59489613  0.77313171     0.06310
H843        H  0.33099628  0.57946614  0.83777047     0.06150
O844        O  0.30324513  0.57761412  0.69971509    -0.75230
O845        O  0.34075548  0.54294058  0.72192329    -0.54140
C846        C  0.33303802  0.56904591  0.70627442     0.78500
O847        O  0.18835534  0.57171624  0.79666425    -0.59830
O848        O  0.14949096  0.54179190  0.77257484    -0.52860
C849        C  0.15801958  0.56466742  0.79034165     0.70510
O850        O  0.30323546  0.57197077  0.79538460    -0.74390
O851        O  0.34233033  0.53935014  0.77254176    -0.54950
C852        C  0.33362420  0.56369880  0.78954413     0.76510
O853        O  0.19060553  0.57797290  0.69794984    -0.59530
O854        O  0.15242246  0.54555591  0.72111350    -0.52650
C855        C  0.16062610  0.57057123  0.70486286     0.73110
Zr856      Zr  0.24659019  0.55721174  0.70959236     2.54710
O857        O  0.24659344  0.62746221  0.70947581    -0.80100
O858        O  0.24781307  0.55337060  0.66425029    -0.93520
Zr859      Zr  0.24574572  0.55619577  0.78398029     2.64680
O860        O  0.24601978  0.62650073  0.78419681    -0.98470
O861        O  0.24623371  0.55769146  0.82933538    -0.80530
O862        O  0.27794623  0.55704044  0.74692797    -0.83890
O863        O  0.21450515  0.55837366  0.74682998    -2.18600
O864        O  0.18749113  0.92604854  0.69507662    -0.67280
O865        O  0.15027566  0.95919763  0.71953058    -0.51850
C866        C  0.15761943  0.93466311  0.70230433     0.71490
O867        O  0.30100751  0.92435442  0.79495461    -0.60190
O868        O  0.34054340  0.95651211  0.77305524    -0.52170
C869        C  0.33147618  0.93252788  0.78976130     0.73290
O870        O  0.18753597  0.92876525  0.79501449    -0.71580
O871        O  0.14875617  0.96020455  0.77223979    -0.50260
C872        C  0.15725826  0.93709669  0.78950923     0.74680
O873        O  0.30248039  0.92174832  0.69637529    -0.66910
O874        O  0.33999945  0.95404219  0.72065282    -0.54110
C875        C  0.33234333  0.92919619  0.70375203     0.73060
Zr876      Zr  0.24525978  0.94258959  0.70727940     2.77540
O877        O  0.24394787  0.87237046  0.70492177    -0.97660
O878        O  0.24695553  0.94765827  0.66210820    -0.78480
Zr879      Zr  0.24471945  0.94128192  0.78173604     2.70070
O880        O  0.24278760  0.87134356  0.77689667    -0.79730
O881        O  0.24547887  0.93455578  0.82683517    -0.98810
Zr882      Zr  0.30875139  0.99833465  0.74632912     2.21500
Zr883      Zr  0.18265591  0.00050958  0.74599516     2.11130
O884        O  0.21319787  0.94147480  0.74460931    -2.47500
O885        O  0.27688073  0.94055584  0.74461874    -0.79520
O886        O  0.21351043  0.50054297  0.70796720    -0.71720
O887        O  0.27702858  0.99827331  0.78387909    -2.32680
O888        O  0.27842194  0.99937682  0.70820555    -2.28880
O889        O  0.21328981  0.99920386  0.78375176    -0.73480
H890        H  0.20044688  0.58096868  0.74729138     0.78520
H891        H  0.29108218  0.99791224  0.79837485     0.79610
H892        H  0.19850977  0.91949047  0.74439345     0.81830
H893        H  0.29328877  0.49945020  0.69403755     0.79440
H894        H  0.25881048  0.53433026  0.83395975     0.42470
H895        H  0.22938485  0.95400789  0.83317757     0.41440
H896        H  0.25799221  0.86551489  0.76278815     0.41120
H897        H  0.22522669  0.86496875  0.71583750     0.39060
H898        H  0.23090161  0.96839665  0.65836388     0.42190
H899        H  0.26977246  0.54223218  0.65998540     0.36970
H900        H  0.25089065  0.63505985  0.72701661     0.43090
H901        H  0.22512274  0.63385632  0.77592891     0.39500
H902        H  0.23622629  0.86634352  0.68782601     0.44420
H903        H  0.24924227  0.58057205  0.65895650     0.43150
H904        H  0.24258753  0.63398468  0.80190399     0.43280
H905        H  0.23477401  0.90937051  0.82994191     0.43640
C906        C  0.12042734  0.88441601  0.84322186     0.03190
C907        C  0.13861497  0.91107128  0.82953023    -0.12960
C908        C  0.13115134  0.91849422  0.80463489     0.00690
C909        C  0.10222490  0.90244611  0.79399631    -0.11490
C910        C  0.08256526  0.87658562  0.80780658     0.03180
C911        C  0.09217502  0.86775242  0.83241205    -0.10910
H912        H  0.16094981  0.92319009  0.83761829     0.08780
H913        H  0.09721524  0.90652033  0.77440177     0.06310
H914        H  0.07950885  0.84493963  0.84219341     0.06150
C915        C  0.37150272  0.88188564  0.84358450     0.03190
C916        C  0.40121941  0.86876258  0.83271082    -0.12960
C917        C  0.40937381  0.87695966  0.80770062     0.00690
C918        C  0.38764505  0.90035297  0.79394148    -0.11490
C919        C  0.35743235  0.91336966  0.80468056     0.03180
C920        C  0.35001058  0.90434004  0.82951602    -0.10910
H921        H  0.41652789  0.84889250  0.84302760     0.08780
H922        H  0.39241075  0.90481683  0.77431127     0.06310
H923        H  0.32630287  0.91277632  0.83752509     0.06150
C924        C  0.11706045  0.61781752  0.84350758     0.03190
C925        C  0.08872197  0.63289424  0.83233043    -0.12960
C926        C  0.08140157  0.62439013  0.80716798     0.00690
C927        C  0.10266988  0.59927687  0.79356310    -0.11490
C928        C  0.13146367  0.58428243  0.80487165     0.03180
C929        C  0.13750947  0.59260839  0.82997796    -0.10910
H930        H  0.07443785  0.65470386  0.84237983     0.08780
H931        H  0.09883972  0.59487369  0.77377236     0.06310
H932        H  0.16017318  0.58246905  0.83849668     0.06150
C933        C  0.10437616  0.60931867  0.65525789     0.03190
C934        C  0.07759479  0.62254365  0.67001873    -0.12960
C935        C  0.07893838  0.62199685  0.69607487     0.00690
C936        C  0.10615128  0.60473616  0.70756479    -0.11490
C937        C  0.13317106  0.59137550  0.69311147     0.03180
C938        C  0.13298174  0.59608433  0.66723710    -0.10910
H939        H  0.05589021  0.63481245  0.66133480     0.08780
H940        H  0.10735241  0.60402176  0.72771066     0.06310
H941        H  0.15478315  0.58827807  0.65656101     0.06150
C942        C  0.09379383  0.90245402  0.65453973     0.03190
C943        C  0.07560597  0.87627973  0.66895934    -0.12960
C944        C  0.08020355  0.87402869  0.69473009     0.00690
C945        C  0.10726582  0.89320010  0.70555815    -0.11490
C946        C  0.12915570  0.91478968  0.69066834     0.03180
C947        C  0.12157874  0.92055421  0.66547366    -0.10910
H948        H  0.05738207  0.85778845  0.66028925     0.08780
H949        H  0.11211040  0.89000593  0.72526235     0.06310
H950        H  0.13653175  0.94041084  0.65483218     0.06150
C951        C  0.38824758  0.60743806  0.65569586     0.03190
C952        C  0.41436179  0.62320051  0.66975001    -0.12960
C953        C  0.41359362  0.62286259  0.69589692     0.00690
C954        C  0.38727782  0.60434137  0.70805251    -0.11490
C955        C  0.36055684  0.58945308  0.69416220     0.03180
C956        C  0.36050524  0.59294931  0.66821927    -0.10910
H957        H  0.43509511  0.63668281  0.66037594     0.08780
H958        H  0.38636307  0.60399494  0.72821098     0.06310
H959        H  0.33918731  0.58320374  0.65777902     0.06150
C960        C  0.39660538  0.90237350  0.65537332     0.03190
C961        C  0.41946225  0.88155723  0.66962928    -0.12960
C962        C  0.41376201  0.87547791  0.69508669     0.00690
C963        C  0.38435282  0.88977993  0.70606840    -0.11490
C964        C  0.36062064  0.90928356  0.69163596     0.03180
C965        C  0.36686274  0.91520021  0.66628169    -0.10910
H966        H  0.44219943  0.87108173  0.66102329     0.08780
H967        H  0.37961282  0.88512375  0.72568895     0.06310
H968        H  0.34990473  0.93258393  0.65555786     0.06150
O969        O  0.31392148  0.82431545  0.95165004    -0.75230
O970        O  0.28280959  0.79099383  0.92339723    -0.54140
C971        C  0.30639022  0.81426619  0.92909234     0.78500
O972        O  0.30839676  0.67492102  0.03646320    -0.59830
O973        O  0.27769713  0.71182167  0.06334618    -0.52860
C974        C  0.29949602  0.68574401  0.05861757     0.70510
O975        O  0.31326456  0.67619892  0.95185881    -0.74390
O976        O  0.28304725  0.71015828  0.92411784    -0.54950
C977        C  0.30585853  0.68576203  0.92949496     0.76510
O978        O  0.30772849  0.82999147  0.03678234    -0.59530
O979        O  0.27650914  0.79489214  0.06372164    -0.52650
C980        C  0.29807630  0.82093235  0.05889056     0.73110
Zr981      Zr  0.29372653  0.80979449  0.99400026     2.54710
O982        O  0.35391653  0.80943184  0.99647980    -0.80100
O983        O  0.29192692  0.88000432  0.99288598    -0.93520
Zr984      Zr  0.29371026  0.69344813  0.99379739     2.64680
O985        O  0.35402814  0.69384397  0.99455037    -0.98470
O986        O  0.29213512  0.62317543  0.99289563    -0.80530
O987        O  0.29494752  0.75126506  0.97046953    -0.83890
O988        O  0.29390473  0.75199935  0.01735218    -2.18600
O989        O  0.17546900  0.82754414  0.03586156    -0.67280
O990        O  0.20530769  0.79167994  0.06269143    -0.51850
C991        C  0.18303097  0.81690070  0.05807284     0.71490
O992        O  0.17565153  0.67882686  0.94969531    -0.60190
O993        O  0.20861599  0.71146025  0.92302193    -0.52170
C994        C  0.18477251  0.68823641  0.92753892     0.73290
O995        O  0.17549615  0.67616203  0.03417230    -0.71580
O996        O  0.20694409  0.70970491  0.06224559    -0.50260
C997        C  0.18419386  0.68529239  0.05656781     0.74680
O998        O  0.17794556  0.82713152  0.95058721    -0.66910
O999        O  0.20942401  0.79200686  0.92321636    -0.54110
C1000       C  0.18702155  0.81728325  0.92826367     0.73060
Zr1001     Zr  0.19392425  0.80991622  0.99318015     2.77540
O1002       O  0.13362257  0.80951178  0.99181120    -0.97660
O1003       O  0.19587458  0.88012757  0.99406712    -0.78480
Zr1004     Zr  0.19421236  0.69358194  0.99219787     2.70070
O1005       O  0.13400510  0.68980949  0.99263112    -0.79730
O1006       O  0.19952407  0.62359220  0.99018142    -0.98810
Zr1007     Zr  0.24535093  0.75144511  0.94710920     2.21500
Zr1008     Zr  0.24260420  0.75197009  0.03909849     2.11130
O1009       O  0.19265221  0.75182309  0.01603014    -2.47500
O1010       O  0.19430985  0.75164956  0.96921149    -0.79520
O1011       O  0.24324619  0.81088221  0.01720572    -0.71720
O1012       O  0.24473276  0.69247479  0.96918238    -2.32680
O1013       O  0.24445579  0.81069316  0.96996496    -2.28880
O1014       O  0.24315259  0.69258263  0.01665603    -0.73480
H1015       H  0.31237874  0.75225039  0.02871351     0.78520
H1016       H  0.24500956  0.67056298  0.95782955     0.79610
H1017       H  0.17343776  0.75173405  0.02683357     0.81830
H1018       H  0.24478219  0.83242240  0.95890572     0.79440
H1019       H  0.27579262  0.61648822  0.97984886     0.42470
H1020       H  0.21294707  0.61705745  0.00491833     0.41440
H1021       H  0.12658310  0.71705811  0.99347342     0.41120
H1022       H  0.12671652  0.79394495  0.00625089     0.39060
H1023       H  0.21498617  0.88644657  0.00486107     0.42190
H1024       H  0.28005422  0.88601507  0.97732702     0.36970
H1025       H  0.36049495  0.78379672  0.98967630     0.43090
H1026       H  0.35981677  0.71073437  0.00891058     0.39500
H1027       H  0.12705808  0.83626736  0.99636650     0.44420
H1028       H  0.31513731  0.88771230  0.98960233     0.43150
H1029       H  0.36027510  0.66753406  0.99975830     0.43280
H1030       H  0.17704731  0.61397356  0.99414754     0.43640
C1031       C  0.12525718  0.87937401  0.14929036     0.03190
C1032       C  0.14037236  0.91027810  0.16184781    -0.12960
C1033       C  0.13385375  0.91736155  0.18732268     0.00690
C1034       C  0.11158612  0.89362417  0.20000320    -0.11490
C1035       C  0.09664209  0.86264068  0.18738615     0.03180
C1036       C  0.10277281  0.85619445  0.16201758    -0.10910
H1037       H  0.15952718  0.92650627  0.15240784     0.08780
H1038       H  0.10731942  0.89784746  0.21981947     0.06310
H1039       H  0.09173276  0.83151484  0.15257418     0.06150
C1040       C  0.35630233  0.63566380  0.15098722     0.03190
C1041       C  0.37675207  0.66299027  0.16253160    -0.12960
C1042       C  0.38298843  0.66104607  0.18811681     0.00690
C1043       C  0.36922713  0.63111550  0.20219962    -0.11490
C1044       C  0.34930202  0.60313100  0.19053770     0.03180
C1045       C  0.34390820  0.60495331  0.16478105    -0.10910
H1046       H  0.38639434  0.68690248  0.15190992     0.08780
H1047       H  0.37303343  0.63045010  0.22214945     0.06310
H1048       H  0.32680210  0.58490506  0.15597986     0.06150
C1049       C  0.35531402  0.88060674  0.14977285     0.03190
C1050       C  0.34344431  0.91329988  0.16274691    -0.12960
C1051       C  0.34909400  0.91832318  0.18843136     0.00690
C1052       C  0.36852661  0.89132603  0.20089927    -0.11490
C1053       C  0.38103939  0.85890676  0.18795732     0.03180
C1054       C  0.37448436  0.85364181  0.16252328    -0.10910
H1055       H  0.32707200  0.93312021  0.15332260     0.08780
H1056       H  0.37270129  0.89455821  0.22075856     0.06310
H1057       H  0.38364986  0.82803956  0.15284598     0.06150
O1058       O  0.18745157  0.93560474  0.19623630    -0.75230
O1059       O  0.14600053  0.96581307  0.21820386    -0.54140
C1060       C  0.15690142  0.94172078  0.20148054     0.78500
O1061       O  0.29383583  0.93061109  0.29440620    -0.59830
O1062       O  0.33452901  0.96494687  0.27483546    -0.52860
C1063       C  0.32419972  0.93808751  0.28943002     0.70510
O1064       O  0.18515663  0.93072179  0.29273181    -0.74390
O1065       O  0.14499931  0.96474587  0.27254825    -0.54950
C1066       C  0.15499044  0.93820785  0.28734318     0.76510
O1067       O  0.29571918  0.93764756  0.19669978    -0.59530
O1068       O  0.33626681  0.96661216  0.21985572    -0.52650
C1069       C  0.32602030  0.94318141  0.20257590     0.73110
Zr1070     Zr  0.24119777  0.95592174  0.20982179     2.54710
O1071       O  0.24200931  0.88567001  0.21019173    -0.80100
O1072       O  0.24296743  0.95891184  0.16451166    -0.93520
Zr1073     Zr  0.23974989  0.95392050  0.28306452     2.64680
O1074       O  0.23840463  0.88360116  0.28338497    -0.98470
O1075       O  0.23909817  0.96026308  0.32833022    -0.80530
O1076       O  0.20803043  0.95384894  0.24607902    -0.83890
O1077       O  0.27289675  0.95409687  0.24659021    -2.18600
O1078       O  0.29550264  0.58713619  0.20032462    -0.67280
O1079       O  0.33644326  0.55516377  0.22088373    -0.51850
C1080       C  0.32598158  0.58003473  0.20507504     0.71490
O1081       O  0.18457923  0.59078660  0.29354679    -0.60190
O1082       O  0.14448935  0.55792198  0.27207698    -0.52170
C1083       C  0.15450713  0.58463376  0.28720324     0.73290
O1084       O  0.29229641  0.59213467  0.29560605    -0.71580
O1085       O  0.33354980  0.56050240  0.27409224    -0.50260
C1086       C  0.32264513  0.58697531  0.28932476     0.74680
O1087       O  0.18578283  0.58735382  0.19934905    -0.66910
O1088       O  0.14455484  0.55489245  0.21946921    -0.54110
C1089       C  0.15518358  0.58005574  0.20386557     0.73060
Zr1090     Zr  0.24046283  0.56765918  0.21196951     2.77540
O1091       O  0.23907568  0.63796326  0.21289990    -0.97660
O1092       O  0.24337273  0.56211158  0.16679614    -0.78480
Zr1093     Zr  0.23906031  0.56520424  0.28550167     2.70070
O1094       O  0.23838923  0.63410725  0.29502837    -0.79730
O1095       O  0.23741864  0.55013170  0.32964301    -0.98810
Zr1096     Zr  0.17455731  0.51061144  0.24652618     2.21500
Zr1097     Zr  0.30603410  0.51122090  0.24803011     2.11130
O1098       O  0.27179416  0.56768692  0.24885054    -2.47500
O1099       O  0.20762006  0.56748896  0.24845583    -0.79520
O1100       O  0.27423417  0.51198338  0.21064920    -0.71720
O1101       O  0.20550249  0.50951117  0.28451986    -2.32680
O1102       O  0.20763162  0.51163728  0.20957685    -2.28880
O1103       O  0.27343437  0.50982913  0.28543541    -0.73480
H1104       H  0.28659070  0.93120459  0.24604045     0.78520
H1105       H  0.19096501  0.50926693  0.29887979     0.79610
H1106       H  0.28489861  0.59096145  0.24892754     0.81830
H1107       H  0.19412860  0.51188801  0.19478186     0.79440
H1108       H  0.21542170  0.96315549  0.33293577     0.42470
H1109       H  0.26094015  0.54985256  0.33478465     0.41440
H1110       H  0.23897952  0.64647309  0.27852307     0.41120
H1111       H  0.25934998  0.64582207  0.22193778     0.39060
H1112       H  0.26196787  0.54408729  0.16335931     0.42190
H1113       H  0.22287153  0.97350948  0.15987294     0.36970
H1114       H  0.22926738  0.87887540  0.22531235     0.43090
H1115       H  0.25676966  0.87522563  0.27223616     0.39500
H1116       H  0.24324716  0.64543244  0.19543606     0.44420
H1117       H  0.23859413  0.93211806  0.15874361     0.43150
H1118       H  0.24571765  0.87659438  0.30030582     0.43280
H1119       H  0.22805406  0.57360061  0.33777592     0.43640
O1120       O  0.04268631  0.84532689  0.19528344    -0.75230
O1121       O  0.08376319  0.81065878  0.21389197    -0.54140
C1122       C  0.07303307  0.83797052  0.19996507     0.78500
O1123       O  0.43627951  0.83568676  0.29254484    -0.59830
O1124       O  0.39523044  0.80690779  0.26984965    -0.52860
C1125       C  0.40580763  0.83037097  0.28703659     0.70510
O1126       O  0.04463638  0.83646428  0.29127502    -0.74390
O1127       O  0.08553117  0.80749696  0.26803425    -0.54950
C1128       C  0.07503283  0.83081785  0.28534766     0.76510
O1129       O  0.43518311  0.84114265  0.19423634    -0.59530
O1130       O  0.39509365  0.80749767  0.21493180    -0.52650
C1131       C  0.40504020  0.83383131  0.19985384     0.73110
Zr1132     Zr  0.98946396  0.81878440  0.20485692     2.54710
O1133       O  0.98742031  0.88888818  0.20294149    -0.80100
O1134       O  0.49011920  0.81051246  0.15970636    -0.93520
Zr1135     Zr  0.99038541  0.81735776  0.27815581     2.64680
O1136       O  0.99101265  0.88763072  0.27723604    -0.98470
O1137       O  0.49021246  0.81538111  0.32350338    -0.80530
O1138       O  0.02228617  0.81964898  0.24123630    -0.83890
O1139       O  0.45757946  0.81906216  0.24194964    -2.18600
O1140       O  0.43664080  0.68303105  0.19231772    -0.67280
O1141       O  0.39620006  0.71363531  0.21533540    -0.51850
C1142       C  0.40652461  0.68804582  0.19932028     0.71490
O1143       O  0.04669258  0.68691464  0.28721096    -0.60190
O1144       O  0.08709768  0.71980704  0.26638009    -0.52170
C1145       C  0.07705237  0.69470250  0.28215281     0.73290
O1146       O  0.43664716  0.68497486  0.28833704    -0.71580
O1147       O  0.39531205  0.71772090  0.26875221    -0.50260
C1148       C  0.40606379  0.69243279  0.28415225     0.74680
O1149       O  0.04569318  0.68293882  0.19216698    -0.66910
O1150       O  0.08573987  0.71616500  0.21348347    -0.54110
C1151       C  0.07590547  0.68949470  0.19817440     0.73060
Zr1152     Zr  0.49098014  0.70723807  0.20243499     2.77540
O1153       O  0.49305418  0.63722773  0.19737070    -0.97660
O1154       O  0.49108329  0.71805429  0.15772384    -0.78480
Zr1155     Zr  0.49125323  0.70550319  0.27589548     2.70070
O1156       O  0.49248348  0.63524684  0.27513085    -0.79730
O1157       O  0.48955790  0.71095011  0.32110618    -0.98810
Zr1158     Zr  0.05601691  0.76319365  0.23991806     2.21500
Zr1159     Zr  0.42473004  0.76185503  0.24126844     2.11130
O1160       O  0.45892426  0.70526515  0.23953670    -2.47500
O1161       O  0.02335355  0.70594218  0.23897229    -0.79520
O1162       O  0.45632332  0.76259627  0.20334824    -0.71720
O1163       O  0.02399840  0.76169864  0.27747736    -2.32680
O1164       O  0.02398108  0.76354066  0.20255707    -2.28880
O1165       O  0.45749611  0.76113688  0.27809959    -0.73480
H1166       H  0.44381661  0.84189190  0.24264398     0.78520
H1167       H  0.03796446  0.76143351  0.29202459     0.79610
H1168       H  0.44574664  0.68203762  0.23958896     0.81830
H1169       H  0.03807246  0.76405489  0.18795548     0.79440
H1170       H  0.00897365  0.79830887  0.32777923     0.42470
H1171       H  0.47461401  0.73305679  0.32469524     0.41440
H1172       H  0.00038382  0.62832766  0.25814064     0.41120
H1173       H  0.47619773  0.62729540  0.20910270     0.39060
H1174       H  0.46835432  0.72705895  0.15405183     0.42190
H1175       H  0.01387216  0.80922296  0.15504867     0.36970
H1176       H  0.98722640  0.89759730  0.22059691     0.43090
H1177       H  0.46871917  0.89513108  0.27139553     0.39500
H1178       H  0.48390202  0.63185053  0.18059763     0.44420
H1179       H  0.98249104  0.83566955  0.15334144     0.43150
H1180       H  0.99138884  0.89577932  0.29499299     0.43280
H1181       H  0.47684431  0.68812602  0.32652180     0.43640
C1182       C  0.12762951  0.63634058  0.14972330     0.03190
C1183       C  0.13663127  0.60393596  0.16350716    -0.12960
C1184       C  0.13191450  0.60330154  0.18939231     0.00690
C1185       C  0.11302239  0.63244171  0.20103017    -0.11490
C1186       C  0.10024895  0.66283146  0.18694220     0.03180
C1187       C  0.10809499  0.66509963  0.16145656    -0.10910
H1188       H  0.14985381  0.58033533  0.15456952     0.08780
H1189       H  0.10883905  0.63193511  0.22095797     0.06310
H1190       H  0.09960085  0.68969129  0.15099748     0.06150
C1191       C  0.10687091  0.64034942  0.33591222     0.03190
C1192       C  0.09779569  0.67260888  0.32210229    -0.12960
C1193       C  0.10090035  0.67204942  0.29610452     0.00690
C1194       C  0.11815753  0.64191330  0.28419427    -0.11490
C1195       C  0.13072400  0.61157327  0.29825594     0.03180
C1196       C  0.12453638  0.61042392  0.32390723    -0.10910
H1197       H  0.08537394  0.69673208  0.33112349     0.08780
H1198       H  0.12121391  0.64165572  0.26414381     0.06310
H1199       H  0.13301296  0.58577794  0.33433494     0.06150
C1200       C  0.37232338  0.63861880  0.33848760     0.03190
C1201       C  0.35029248  0.61318956  0.32665093    -0.12960
C1202       C  0.34579636  0.61424896  0.30086353     0.00690
C1203       C  0.36157941  0.64283809  0.28686645    -0.11490
C1204       C  0.38269452  0.66945259  0.29872246     0.03180
C1205       C  0.38788036  0.66717034  0.32453295    -0.10910
H1206       H  0.33876097  0.59038639  0.33725594     0.08780
H1207       H  0.35847809  0.64339035  0.26684267     0.06310
H1208       H  0.40671744  0.68503276  0.33324883     0.06150
C1209       C  0.10566007  0.89210021  0.33819994     0.03190
C1210       C  0.12431316  0.91917337  0.32494238    -0.12960
C1211       C  0.13083451  0.91363404  0.29948924     0.00690
C1212       C  0.11783890  0.88168191  0.28668313    -0.11490
C1213       C  0.09816134  0.85521083  0.29936761     0.03180
C1214       C  0.09322490  0.85973416  0.32521058    -0.10910
H1215       H  0.13354020  0.94492092  0.33426169     0.08780
H1216       H  0.12183689  0.87842626  0.26676773     0.06310
H1217       H  0.07754167  0.83932733  0.33480641     0.06150
C1218       C  0.37736692  0.89523752  0.33930989     0.03190
C1219       C  0.39006348  0.86264302  0.32676185    -0.12960
C1220       C  0.38291910  0.85552509  0.30142096     0.00690
C1221       C  0.36141537  0.88062533  0.28905858    -0.11490
C1222       C  0.34821806  0.91309877  0.30168158     0.03200
C1223       C  0.35591780  0.92001744  0.32679109    -0.10910
H1224       H  0.40839290  0.84506810  0.33601929     0.08780
H1225       H  0.35640682  0.87619158  0.26940259     0.06310
H1226       H  0.34648065  0.94569158  0.33623667     0.06150
O1227       O  0.06177583  0.95126411  0.53762739    -0.75230
O1228       O  0.03049392  0.98896999  0.56382427    -0.54140
C1229       C  0.05203129  0.96238306  0.55950453     0.78500
O1230       O  0.06333163  0.59993264  0.45086649    -0.59830
O1231       O  0.03316364  0.56320045  0.42360094    -0.52860
C1232       C  0.05495521  0.58896854  0.42883091     0.70510
O1233       O  0.06671284  0.59904020  0.53487622    -0.74390
O1234       O  0.03242165  0.56990944  0.56274319    -0.54950
C1235       C  0.05742762  0.59072685  0.55711761     0.76510
O1236       O  0.06227019  0.94467786  0.45295030    -0.59530
O1237       O  0.03201540  0.97797176  0.42460255    -0.52650
C1238       C  0.05332670  0.95217850  0.43053765     0.73110
Zr1239     Zr  0.04661959  0.96785153  0.49479447     2.54710
O1240       O  0.10687368  0.97059645  0.49461107    -0.80100
O1241       O  0.04643280  0.89761121  0.49574463    -0.93520
Zr1242     Zr  0.04614358  0.58418443  0.49300611     2.64680
O1243       O  0.10640655  0.58769856  0.49241974    -0.98470
O1244       O  0.04179346  0.65433332  0.49364321    -0.80530
O1245       O  0.04710223  0.52752979  0.51717689    -0.83890
O1246       O  0.04767871  0.52446364  0.47040750    -2.18600
O1247       O  0.43042993  0.94646270  0.45219119    -0.67280
O1248       O  0.46129515  0.98045055  0.42470927    -0.51850
C1249       C  0.43897042  0.95534558  0.42974602     0.71490
O1250       O  0.42320929  0.59582356  0.53414322    -0.60190
O1251       O  0.45869980  0.56958044  0.56220333    -0.52170
C1252       C  0.43257785  0.58836475  0.55648672     0.73290
O1253       O  0.42878766  0.59760989  0.44926969    -0.71580
O1254       O  0.46296150  0.56362667  0.42330776    -0.50260
C1255       C  0.43866173  0.58670939  0.42734045     0.74680
O1256       O  0.43134549  0.95151147  0.53851685    -0.66910
O1257       O  0.46137359  0.99071456  0.56390169    -0.54110
C1258       C  0.44012717  0.96390570  0.56040435     0.73060
Zr1259     Zr  0.44636758  0.96756259  0.49478031     2.77540
O1260       O  0.38609120  0.97040431  0.49593516    -0.97660
O1261       O  0.44635013  0.89734313  0.49542226    -0.78480
Zr1262     Zr  0.44635820  0.58411777  0.49219849     2.70070
O1263       O  0.38648137  0.59128685  0.48960358    -0.79730
O1264       O  0.45228670  0.65401559  0.49392655    -0.98810
Zr1265     Zr  0.49617922  0.52954520  0.53890564     2.21500
Zr1266     Zr  0.49740391  0.52267034  0.44778933     2.11130
O1267       O  0.44633414  0.52408626  0.47009281    -2.47500
O1268       O  0.44562836  0.52759018  0.51673667    -0.79520
O1269       O  0.49678276  0.96535366  0.47135908    -0.71720
O1270       O  0.49582927  0.58757157  0.51618773    -2.32680
O1271       O  0.49631334  0.96872547  0.51798659    -2.28880
O1272       O  0.49673905  0.58322597  0.46896064    -0.73480
H1273       H  0.06666371  0.52364163  0.45936940     0.78520
H1274       H  0.49549920  0.60989368  0.52720560     0.79610
H1275       H  0.42767003  0.52325142  0.45892201     0.81830
H1276       H  0.49624640  0.94768945  0.52958003     0.79440
H1277       H  0.03512601  0.66122318  0.51092768     0.42470
H1278       H  0.46584790  0.66015592  0.47908315     0.41440
H1279       H  0.37790496  0.56464652  0.49104139     0.41120
H1280       H  0.37987580  0.98418982  0.48062688     0.39060
H1281       H  0.46668357  0.88973933  0.48616110     0.42190
H1282       H  0.03089719  0.89116139  0.50939456     0.36970
H1283       H  0.11220751  0.49330350  0.50526939     0.43090
H1284       H  0.11346324  0.56826203  0.47974354     0.39500
H1285       H  0.37897497  0.94342270  0.49284578     0.44420
H1286       H  0.06856862  0.89060969  0.50214834     0.43150
H1287       H  0.11156966  0.61293101  0.48491882     0.43280
H1288       H  0.42992061  0.66396287  0.49003225     0.43640
C1289       C  0.43669387  0.94363987  0.38385485    -0.20240
C1290       C  0.42261398  0.93656379  0.40749953    -0.06810
C1291       C  0.39327139  0.91388783  0.40846419     0.14060
C1292       C  0.37889805  0.90020075  0.38602299    -0.20300
C1293       C  0.39306007  0.90852605  0.36278082    -0.06820
C1294       C  0.42240426  0.93024236  0.36176393     0.14050
C1295       C  0.43856227  0.93993860  0.33720004    -0.23650
H1296       H  0.45894595  0.96078698  0.38228154     0.15330
H1297       H  0.35635762  0.88327574  0.38656220     0.15360
C1298       C  0.37649569  0.90445027  0.43273529    -0.23600
H1299       H  0.46134084  0.95747137  0.33974702     0.05580
H1300       H  0.42110474  0.95673598  0.32567336     0.08800
H1301       H  0.44561522  0.91298919  0.32704669     0.08800
H1302       H  0.36894568  0.93149095  0.44259282     0.08780
H1303       H  0.39357931  0.88763604  0.44455806     0.08780
H1304       H  0.35386291  0.88679600  0.42981331     0.05560
C1305       C  0.06105969  0.89576105  0.37024087    -0.20240
C1306       C  0.09476276  0.90071685  0.36433091    -0.06810
C1307       C  0.11598391  0.91698213  0.38272800     0.14060
C1308       C  0.10217789  0.93238312  0.40487181    -0.20300
C1309       C  0.06811898  0.92975386  0.40969266    -0.06820
C1310       C  0.04784288  0.90891336  0.39297085     0.14050
C1311       C  0.01227379  0.90021309  0.39922217    -0.23650
H1312       H  0.04450433  0.88279777  0.35669459     0.15330
H1313       H  0.11798571  0.94718726  0.41818582     0.15360
C1314       C  0.15314539  0.91799915  0.37993252    -0.23600
H1315       H  0.99979771  0.88361449  0.38410036     0.05580
H1316       H  0.49857055  0.92737816  0.40230515     0.08800
H1317       H  0.01109581  0.88305529  0.41649834     0.08800
H1318       H  0.16165662  0.94839845  0.37891563     0.08780
H1319       H  0.16212779  0.90178553  0.36326404     0.08780
H1320       H  0.16469196  0.90437292  0.39634897     0.05560
C1321       C  0.40431096  0.59189112  0.36157275    -0.20240
C1322       C  0.38722580  0.62684601  0.36223959    -0.06810
C1323       C  0.38630592  0.64909437  0.38447775     0.14060
C1324       C  0.40304566  0.63552082  0.40566931    -0.20300
C1325       C  0.42074479  0.60035734  0.40487078    -0.06820
C1326       C  0.42066641  0.57809619  0.38234193     0.14050
C1327       C  0.43616923  0.53866879  0.37981626    -0.23650
H1328       H  0.40499050  0.57514897  0.34431718     0.15330
H1329       H  0.40255745  0.65256815  0.42276274     0.15360
C1330       C  0.36730293  0.68647698  0.38591191    -0.23600
H1331       H  0.43063036  0.52447870  0.36161210     0.05580
H1332       H  0.42576523  0.52016609  0.39453701     0.08800
H1333       H  0.46354736  0.54049560  0.38111206     0.08800
H1334       H  0.34089364  0.68111088  0.38134390     0.08780
H1335       H  0.37777300  0.70728934  0.37249565     0.08780
H1336       H  0.36843720  0.69981237  0.40483716     0.05560
C1337       C  0.11625723  0.61960186  0.37949700    -0.20240
C1338       C  0.09451104  0.63499393  0.36176875    -0.06810
C1339       C  0.06029409  0.63862236  0.36787360     0.14060
C1340       C  0.04891545  0.62548331  0.39080548    -0.20300
C1341       C  0.07026002  0.60803356  0.40757487    -0.06820
C1342       C  0.10440320  0.60546284  0.40222699     0.14050
C1343       C  0.12783028  0.58558258  0.41962337    -0.23650
H1344       H  0.14235196  0.61668037  0.37494510     0.15330
H1345       H  0.02270028  0.62722901  0.39532010     0.15360
C1346       C  0.03473182  0.65351860  0.35005145    -0.23600
H1347       H  0.15351064  0.58475529  0.41207973     0.05580
H1348       H  0.11962918  0.55538188  0.42251994     0.08800
H1349       H  0.12826841  0.60122944  0.43780072     0.08800
H1350       H  0.03681728  0.63832369  0.33175446     0.08780
H1351       H  0.03764356  0.68505602  0.34798447     0.08780
H1352       H  0.00909932  0.64889654  0.35703227     0.05560
C1353       C  0.17676523  0.82103381  0.10402320    -0.20240
C1354       C  0.16601406  0.83396767  0.08058395    -0.06810
C1355       C  0.14032333  0.86209936  0.08002354     0.14060
C1356       C  0.12728131  0.87695097  0.10270092    -0.20300
C1357       C  0.13950910  0.86468702  0.12567037    -0.06820
C1358       C  0.16470887  0.83670829  0.12630753     0.14050
C1359       C  0.17922793  0.82340690  0.15061581    -0.23650
H1360       H  0.19514942  0.79839997  0.10526847     0.15330
H1361       H  0.10749510  0.89814170  0.10256117     0.15360
C1362       C  0.12600607  0.87619735  0.05596572    -0.23600
H1363       H  0.19931821  0.80183248  0.14765252     0.05580
H1364       H  0.15973312  0.80987226  0.16220920     0.08800
H1365       H  0.18991356  0.84843368  0.16092507     0.08800
H1366       H  0.11553612  0.85151104  0.04519972     0.08780
H1367       H  0.14550549  0.89065788  0.04484989     0.08780
H1368       H  0.10572688  0.89742200  0.05926560     0.05560
C1369       C  0.34731112  0.84494958  0.08235118    -0.20240
C1370       C  0.31273494  0.84133724  0.08063743    -0.06810
C1371       C  0.29265344  0.85506013  0.10059194     0.14060
C1372       C  0.30754796  0.86957646  0.12222460    -0.20300
C1373       C  0.34209373  0.87088778  0.12468312    -0.06820
C1374       C  0.36228929  0.85965464  0.10413446     0.14050
C1375       C  0.39948806  0.86307757  0.10445569    -0.23650
H1376       H  0.36279450  0.83510619  0.06693959     0.15330
H1377       H  0.29198564  0.87825416  0.13787677     0.15360
C1378       C  0.25540664  0.85406097  0.09946103    -0.23600
H1379       H  0.40775199  0.88093121  0.08858881     0.05580
H1380       H  0.41080687  0.83393754  0.10254112     0.08800
H1381       H  0.40885218  0.87706093  0.12172724     0.08800
H1382       H  0.24705189  0.82369662  0.09932362     0.08780
H1383       H  0.24665913  0.86873267  0.08246382     0.08780
H1384       H  0.24373295  0.86864605  0.11588213     0.05560
C1385       C  0.18852385  0.65136025  0.09611717    -0.20240
C1386       C  0.16787187  0.66642988  0.07786531    -0.06810
C1387       C  0.13334139  0.66788478  0.08216151     0.14060
C1388       C  0.12056483  0.65570032  0.10524022    -0.20300
C1389       C  0.14154590  0.64242059  0.12418769    -0.06820
C1390       C  0.17613445  0.63959422  0.11917219     0.14050
C1391       C  0.20095915  0.62662124  0.13819869    -0.23650
H1392       H  0.21498133  0.65017613  0.09255519     0.15330
H1393       H  0.09417742  0.65788119  0.10886106     0.15360
C1394       C  0.11024805  0.68431746  0.06310157    -0.23600
H1395       H  0.22676112  0.63028285  0.13149791     0.05580
H1396       H  0.19821959  0.59541376  0.14149659     0.08800
H1397       H  0.19806069  0.64353313  0.15581467     0.08800
H1398       H  0.11154668  0.66669008  0.04568075     0.08780
H1399       H  0.11738256  0.71453025  0.05903408     0.08780
H1400       H  0.08413833  0.68441875  0.06975708     0.05560
C1401       C  0.29528171  0.66829035  0.10284281    -0.20240
C1402       C  0.31450085  0.66779557  0.08088070    -0.06810
C1403       C  0.34770900  0.65442520  0.08189754     0.14060
C1404       C  0.36070295  0.64263956  0.10488780    -0.20300
C1405       C  0.34142747  0.64437685  0.12669718    -0.06820
C1406       C  0.30845636  0.65771916  0.12569322     0.14050
C1407       C  0.28764476  0.66317092  0.14896926    -0.23650
H1408       H  0.26989667  0.67848312  0.10239304     0.15330
H1409       H  0.38622366  0.63305682  0.10603309     0.15360
C1410       C  0.37006494  0.65428664  0.05935032    -0.23600
H1411       H  0.26379727  0.67783586  0.14507528     0.05580
H1412       H  0.30105276  0.68148769  0.16273246     0.08800
H1413       H  0.28203742  0.63479406  0.15726458     0.08800
H1414       H  0.37202787  0.68395377  0.05196787     0.08780
H1415       H  0.36005348  0.63449854  0.04480018     0.08780
H1416       H  0.39546605  0.64428223  0.06386517     0.05560
C1417       C  0.39288054  0.90285815  0.60870045    -0.20240
C1418       C  0.40673715  0.91745381  0.63087030    -0.06810
C1419       C  0.42940453  0.94809618  0.62986083     0.14060
C1420       C  0.43928055  0.96196618  0.60672940    -0.20300
C1421       C  0.42655331  0.94702449  0.58401396    -0.06820
C1422       C  0.40235455  0.91736393  0.58521653     0.14050
C1423       C  0.38617486  0.90102403  0.56217239    -0.23650
H1424       H  0.37465439  0.88000840  0.60981052     0.15330
H1425       H  0.45720398  0.98517537  0.60675010     0.15360
C1426       C  0.44252201  0.96719192  0.65334501    -0.23600
H1427       H  0.36738589  0.87881397  0.56676673     0.05580
H1428       H  0.40509951  0.88713987  0.54989976     0.08800
H1429       H  0.37340779  0.92442194  0.55204749     0.08800
H1430       H  0.45669301  0.94620479  0.66447817     0.08780
H1431       H  0.42161066  0.97834848  0.66488880     0.08780
H1432       H  0.45919707  0.99176474  0.64919076     0.05560
C1433       C  0.39701377  0.56687309  0.58990704    -0.20240
C1434       C  0.41121436  0.59832691  0.57778918    -0.06810
C1435       C  0.41283659  0.63446168  0.59012490     0.14060
C1436       C  0.40218894  0.63749828  0.61503579    -0.20300
C1437       C  0.39100104  0.60495693  0.62805537    -0.06820
C1438       C  0.38736343  0.56933127  0.61494314     0.14050
C1439       C  0.37654505  0.53267281  0.62746177    -0.23650
H1440       H  0.39640739  0.53907554  0.58030948     0.15330
H1441       H  0.40464346  0.66494705  0.62482889     0.15360
C1442       C  0.42763305  0.66947104  0.57809387    -0.23600
H1443       H  0.37937354  0.50702541  0.61497136     0.05580
H1444       H  0.34996648  0.53422456  0.63257304     0.08800
H1445       H  0.39172605  0.52775932  0.64425953     0.08800
H1446       H  0.40912034  0.69322672  0.57825924     0.08780
H1447       H  0.43517660  0.66387298  0.55846972     0.08780
H1448       H  0.44979713  0.67899641  0.58868380     0.05560
C1449       C  0.10662079  0.91990955  0.61014415    -0.20240
C1450       C  0.08268121  0.91280953  0.62883673    -0.06810
C1451       C  0.04874409  0.91969031  0.62323911     0.14060
C1452       C  0.04020358  0.93347640  0.59980662    -0.20300
C1453       C  0.06407830  0.94226645  0.58181957    -0.06820
C1454       C  0.09776221  0.93504830  0.58684340     0.14050
C1455       C  0.12439495  0.94516112  0.56832600    -0.23650
H1456       H  0.13253859  0.91466075  0.61400980     0.15330
H1457       H  0.01431169  0.93878516  0.59568719     0.15360
C1458       C  0.02091173  0.91576915  0.64193925    -0.23600
H1459       H  0.14952774  0.93909689  0.57564194     0.05580
H1460       H  0.12298164  0.47637456  0.56402826     0.08800
H1461       H  0.12113200  0.92792763  0.55091731     0.08800
H1462       H  0.02713719  0.93078578  0.65971231     0.08780
H1463       H  0.01481618  0.88506064  0.64495606     0.08780
H1464       H  0.99782552  0.92894951  0.63500682     0.05560
C1465       C  0.09776377  0.57320203  0.58819198    -0.20240
C1466       C  0.07802422  0.60224222  0.57823316    -0.06810
C1467       C  0.07184872  0.63627352  0.59206744     0.14060
C1468       C  0.08470826  0.63979523  0.61622855    -0.20300
C1469       C  0.10120888  0.60869262  0.62754656    -0.06820
C1470       C  0.10881916  0.57527946  0.61283334     0.14050
C1471       C  0.12549916  0.53987795  0.62310137    -0.23650
H1472       H  0.10178987  0.54693227  0.57730905     0.15330
H1473       H  0.07943612  0.66577494  0.62705536     0.15360
C1474       C  0.04979094  0.66744667  0.58201650    -0.23600
H1475       H  0.12469583  0.51508651  0.60974278     0.05580
H1476       H  0.11283418  0.53056482  0.64039816     0.08800
H1477       H  0.15205912  0.54567083  0.62657986     0.08800
H1478       H  0.52467620  0.65564668  0.57837093     0.08780
H1479       H  0.06039453  0.67838276  0.56435852     0.08780
H1480       H  0.04720212  0.69211465  0.59535891     0.05560
C1481       C  0.13874347  0.64769360  0.90994255    -0.20240
C1482       C  0.16659683  0.67145246  0.90569001    -0.06810
C1483       C  0.17624487  0.67857469  0.88055238     0.14060
C1484       C  0.15846201  0.66148219  0.86109500    -0.20300
C1485       C  0.13153978  0.63725166  0.86551514    -0.06820
C1486       C  0.12116547  0.63049648  0.89010057     0.14050
C1487       C  0.09210127  0.60464764  0.89529795    -0.23650
H1488       H  0.13075386  0.64215641  0.92884873     0.15330
H1489       H  0.16600532  0.66644317  0.84197449     0.15360
C1490       C  0.20533042  0.70351351  0.87337957    -0.23600
H1491       H  0.08731812  0.60210269  0.91560142     0.05580
H1492       H  0.09702044  0.57531183  0.88748972     0.08800
H1493       H  0.06950658  0.61656797  0.88654045     0.08800
H1494       H  0.22843852  0.69153202  0.88122086     0.08780
H1495       H  0.20119059  0.73356992  0.88012058     0.08780
H1496       H  0.20896002  0.70476891  0.85287659     0.05560
C1497       C  0.35043246  0.82552823  0.86637491    -0.20240
C1498       C  0.35890370  0.86468723  0.86701635    -0.06810
C1499       C  0.35218174  0.88679675  0.88880975     0.14060
C1500       C  0.33608682  0.86940448  0.90915662    -0.20300
C1501       C  0.32591714  0.83057501  0.90801551    -0.06820
C1502       C  0.33397425  0.80821531  0.88638687     0.14050
C1503       C  0.32597844  0.76584097  0.88420686    -0.23650
H1504       H  0.35571140  0.80866000  0.84962304     0.15330
H1505       H  0.33045091  0.88656890  0.92569877     0.15360
C1506       C  0.36212643  0.92859857  0.89060855    -0.23600
H1507       H  0.33659784  0.75249944  0.86697319     0.05580
H1508       H  0.29877834  0.76153225  0.88345908     0.08800
H1509       H  0.33657362  0.75050231  0.90031914     0.08800
H1510       H  0.34909222  0.94547699  0.87624440     0.08780
H1511       H  0.38929094  0.93116266  0.88770710     0.08780
H1512       H  0.35586998  0.94143410  0.90913638     0.05560
C1513       C  0.16893516  0.85438140  0.86316453    -0.20240
C1514       C  0.13618678  0.86769598  0.86570974    -0.06810
C1515       C  0.12054664  0.86593477  0.88928123     0.14060
C1516       C  0.13774983  0.84971904  0.90941267    -0.20300
C1517       C  0.17044023  0.83576933  0.90669752    -0.06820
C1518       C  0.18649817  0.83932922  0.88321643     0.14050
C1519       C  0.22255786  0.82903135  0.87899837    -0.23650
H1520       H  0.18107959  0.85599020  0.84513758     0.15330
H1521       H  0.12545277  0.84771302  0.92734250     0.15360
C1522       C  0.08634647  0.88229934  0.89353788    -0.23600
H1523       H  0.23143370  0.83773847  0.86028354     0.05580
H1524       H  0.22633066  0.79741471  0.88010561     0.08800
H1525       H  0.23818373  0.84419296  0.89300724     0.08800
H1526       H  0.06791884  0.86603631  0.88235302     0.08780
H1527       H  0.08588685  0.91313926  0.88821334     0.08780
H1528       H  0.07871318  0.88056014  0.91340017     0.05560
C1529       C  0.30980332  0.67150552  0.88428053    -0.20240
C1530       C  0.32411070  0.66780869  0.90795242    -0.06810
C1531       C  0.35542434  0.64911380  0.90972449     0.14060
C1532       C  0.37060410  0.63384031  0.88797453    -0.20300
C1533       C  0.35556850  0.63722663  0.86464427    -0.06820
C1534       C  0.32523438  0.65732777  0.86272401     0.14050
C1535       C  0.30931181  0.66516531  0.83787468    -0.23650
H1536       H  0.28631162  0.68617520  0.88237648     0.15330
H1537       H  0.39417701  0.61895266  0.88915185     0.15360
C1538       C  0.37348732  0.64570426  0.93408309    -0.23600
H1539       H  0.28727421  0.68425813  0.83986220     0.05580
H1540       H  0.30079538  0.63793773  0.82894661     0.08800
H1541       H  0.32733052  0.67970371  0.82545955     0.08800
H1542       H  0.35895810  0.62775410  0.94713236     0.08780
H1543       H  0.37758061  0.67486553  0.94236517     0.08780
H1544       H  0.39811632  0.63176056  0.93158456     0.05560
O1545       O  0.92662685  0.18830944  0.79868836    -0.75230
O1546       O  0.95434261  0.13918882  0.77873154    -0.54140
C1547       C  0.93150260  0.15239830  0.79364097     0.78500
O1548       O  0.92968636  0.31252973  0.70330437    -0.59830
O1549       O  0.95709254  0.36069163  0.72433875    -0.52860
C1550       C  0.93516359  0.34817460  0.70857891     0.70510
O1551       O  0.92987268  0.18573588  0.70418960    -0.74390
O1552       O  0.95647928  0.13810551  0.72538996    -0.54950
C1553       C  0.93497025  0.15025198  0.70953953     0.76510
O1554       O  0.92873489  0.31489764  0.80015890    -0.59530
O1555       O  0.95531587  0.36282837  0.77918809    -0.52650
C1556       C  0.93322325  0.35047437  0.79483010     0.73110
Zr1557     Zr  0.94828091  0.25124132  0.78900051     2.54710
O1558       O  0.88805984  0.25275642  0.79148359    -0.80100
O1559       O  0.95482404  0.25182180  0.83408838    -0.93520
Zr1560     Zr  0.94894146  0.24956068  0.71568760     2.64680
O1561       O  0.88858489  0.24831628  0.71560061    -0.98470
O1562       O  0.95520386  0.24906381  0.67051720    -0.80530
O1563       O  0.94781559  0.21258056  0.75235743    -0.83890
O1564       O  0.94811266  0.28826988  0.75232851    -2.18600
O1565       O  0.56299591  0.31431445  0.80067004    -0.67280
O1566       O  0.53739956  0.36234672  0.77924400    -0.51850
C1567       C  0.55895225  0.34990970  0.79510055     0.71490
O1568       O  0.56379244  0.18483311  0.70521086    -0.60190
O1569       O  0.53536168  0.13739213  0.72536329    -0.52170
C1570       C  0.55776974  0.14938931  0.71003152     0.73290
O1571       O  0.56532021  0.31103554  0.70387681    -0.71580
O1572       O  0.53729542  0.35952286  0.72450395    -0.50260
C1573       C  0.55964788  0.34672918  0.70895151     0.74680
O1574       O  0.56370470  0.18695826  0.79946431    -0.66910
O1575       O  0.53633034  0.13837689  0.77900863    -0.54110
C1576       C  0.55867141  0.15114211  0.79425601     0.73060
Zr1577     Zr  0.54360744  0.25052601  0.78937776     2.77540
O1578       O  0.60390998  0.24929896  0.79158747    -0.97660
O1579       O  0.53631940  0.25073272  0.83443698    -0.78480
Zr1580     Zr  0.54465024  0.24880318  0.71616525     2.70070
O1581       O  0.60495186  0.24827731  0.71540942    -0.79730
O1582       O  0.53844918  0.24661028  0.67106837    -0.98810
Zr1583     Zr  0.49592495  0.17232339  0.75266603     2.21500
Zr1584     Zr  0.99661122  0.32810209  0.75243270     2.11130
O1585       O  0.54485122  0.28757627  0.75273926    -2.47500
O1586       O  0.54450467  0.21172695  0.75276746    -0.79520
O1587       O  0.99606437  0.29070068  0.78978181    -0.71720
O1588       O  0.49665709  0.20977441  0.71538662    -2.32680
O1589       O  0.49574316  0.21124163  0.79005232    -2.28880
O1590       O  0.99699142  0.28872312  0.71526476    -0.73480
H1591       H  0.92829734  0.30392370  0.75221680     0.78520
H1592       H  0.49687665  0.19322141  0.70073698     0.79610
H1593       H  0.56479632  0.30292040  0.75270384     0.81830
H1594       H  0.49548387  0.19533469  0.80467653     0.79440
H1595       H  0.96294837  0.22268561  0.66610238     0.42470
H1596       H  0.52861874  0.27188528  0.66687399     0.41440
H1597       H  0.61132766  0.24750878  0.73317672     0.41120
H1598       H  0.61144950  0.27050922  0.78079156     0.39060
H1599       H  0.52643685  0.27625973  0.83850529     0.42190
H1600       H  0.95783186  0.22440759  0.83852069     0.36970
H1601       H  0.88072059  0.24680941  0.77428197     0.43090
H1602       H  0.88169846  0.27062211  0.72617586     0.39500
H1603       H  0.60912934  0.25818448  0.80874228     0.44420
H1604       H  0.93257203  0.25866282  0.84067606     0.43150
H1605       H  0.88234590  0.25555681  0.69847948     0.43280
H1606       H  0.56140333  0.24778600  0.66451583     0.43640
C1607       C  0.87098061  0.11929732  0.84223746     0.03190
C1608       C  0.89908778  0.13552831  0.83123268    -0.12960
C1609       C  0.90808888  0.12608993  0.80640045     0.00690
C1610       C  0.88825066  0.09965827  0.79281889    -0.11490
C1611       C  0.85977364  0.08350589  0.80405344     0.03180
C1612       C  0.85295322  0.09154324  0.82913655    -0.10910
H1613       H  0.91212562  0.15827060  0.84120956     0.08780
H1614       H  0.89290607  0.09489613  0.77313171     0.06310
H1615       H  0.83099631  0.07946603  0.83777046     0.06150
O1616       O  0.80324512  0.07761412  0.69971509    -0.75230
O1617       O  0.84075547  0.04294058  0.72192328    -0.54140
C1618       C  0.83303801  0.06904592  0.70627441     0.78500
O1619       O  0.68835537  0.07171627  0.79666426    -0.59830
O1620       O  0.64949098  0.04179192  0.77257485    -0.52860
C1621       C  0.65801960  0.06466745  0.79034165     0.70510
O1622       O  0.80323547  0.07197074  0.79538458    -0.74390
O1623       O  0.84233034  0.03935011  0.77254175    -0.54950
C1624       C  0.83362422  0.06369877  0.78954412     0.76510
O1625       O  0.69060552  0.07797290  0.69794984    -0.59530
O1626       O  0.65242245  0.04555592  0.72111351    -0.52650
C1627       C  0.66062608  0.07057123  0.70486287     0.73110
Zr1628     Zr  0.74659018  0.05721174  0.70959236     2.54710
O1629       O  0.74659343  0.12746221  0.70947580    -0.80100
O1630       O  0.74781306  0.05337060  0.66425029    -0.93520
Zr1631     Zr  0.74574573  0.05619577  0.78398028     2.64680
O1632       O  0.74601981  0.12650073  0.78419680    -0.98470
O1633       O  0.74623373  0.05769146  0.82933538    -0.80530
O1634       O  0.77794623  0.05704043  0.74692796    -0.83890
O1635       O  0.71450515  0.05837367  0.74682998    -2.18600
O1636       O  0.68749115  0.42604853  0.69507662    -0.67280
O1637       O  0.65027567  0.45919761  0.71953057    -0.51850
C1638       C  0.65761945  0.43466310  0.70230433     0.71490
O1639       O  0.80100751  0.42435443  0.79495461    -0.60190
O1640       O  0.84054340  0.45651212  0.77305526    -0.52170
C1641       C  0.83147618  0.43252789  0.78976131     0.73290
O1642       O  0.68753598  0.42876526  0.79501449    -0.71580
O1643       O  0.64875618  0.46020454  0.77223978    -0.50260
C1644       C  0.65725827  0.43709669  0.78950923     0.74680
O1645       O  0.80248042  0.42174834  0.69637530    -0.66910
O1646       O  0.83999946  0.45404222  0.72065284    -0.54110
C1647       C  0.83234335  0.42919621  0.70375205     0.73060
Zr1648     Zr  0.74525979  0.44258960  0.70727941     2.77540
O1649       O  0.74394790  0.37237046  0.70492177    -0.97660
O1650       O  0.74695556  0.44765827  0.66210820    -0.78480
Zr1651     Zr  0.74471945  0.44128192  0.78173604     2.70070
O1652       O  0.74278760  0.37134357  0.77689668    -0.79730
O1653       O  0.74547887  0.43455580  0.82683518    -0.98810
Zr1654     Zr  0.80875139  0.49833467  0.74632914     2.21500
Zr1655     Zr  0.68265592  0.50050957  0.74599515     2.11130
O1656       O  0.71319788  0.44147480  0.74460931    -2.47500
O1657       O  0.77688074  0.44055586  0.74461875    -0.79520
O1658       O  0.71351042  0.00054298  0.70796720    -0.71720
O1659       O  0.77702857  0.49827332  0.78387910    -2.32680
O1660       O  0.77842195  0.49937683  0.70820557    -2.28880
O1661       O  0.71328981  0.49920385  0.78375175    -0.73480
H1662       H  0.70044689  0.08096869  0.74729138     0.78520
H1663       H  0.79108217  0.49791226  0.79837486     0.79610
H1664       H  0.69850978  0.41949046  0.74439345     0.81830
H1665       H  0.79328876  0.99945019  0.69403754     0.79440
H1666       H  0.75881058  0.03433032  0.83395974     0.42470
H1667       H  0.72938484  0.45400790  0.83317757     0.41440
H1668       H  0.75799220  0.36551489  0.76278815     0.41120
H1669       H  0.72522672  0.36496875  0.71583750     0.39060
H1670       H  0.73090164  0.46839666  0.65836388     0.42190
H1671       H  0.76977246  0.04223220  0.65998540     0.36970
H1672       H  0.75089068  0.13505985  0.72701659     0.43090
H1673       H  0.72512281  0.13385632  0.77592885     0.39500
H1674       H  0.73622634  0.36634353  0.68782601     0.44420
H1675       H  0.74924224  0.08057204  0.65895650     0.43150
H1676       H  0.74258749  0.13398468  0.80190398     0.43280
H1677       H  0.73477402  0.40937052  0.82994192     0.43640
C1678       C  0.62042736  0.38441600  0.84322186     0.03190
C1679       C  0.63861498  0.41107128  0.82953023    -0.12960
C1680       C  0.63115135  0.41849422  0.80463489     0.00690
C1681       C  0.60222491  0.40244611  0.79399631    -0.11490
C1682       C  0.58256528  0.37658560  0.80780658     0.03180
C1683       C  0.59217505  0.36775239  0.83241204    -0.10910
H1684       H  0.66094982  0.42319011  0.83761829     0.08780
H1685       H  0.59721525  0.40652033  0.77440177     0.06310
H1686       H  0.57950889  0.34493960  0.84219340     0.06150
C1687       C  0.87150271  0.38188560  0.84358449     0.03190
C1688       C  0.90121941  0.36876256  0.83271082    -0.12960
C1689       C  0.90937382  0.37695966  0.80770062     0.00690
C1690       C  0.88764506  0.40035298  0.79394149    -0.11490
C1691       C  0.85743236  0.41336965  0.80468057     0.03180
C1692       C  0.85001058  0.40434001  0.82951602    -0.10910
H1693       H  0.91652790  0.34889248  0.84302759     0.08780
H1694       H  0.89241076  0.40481686  0.77431128     0.06310
H1695       H  0.82630286  0.41277627  0.83752509     0.06150
C1696       C  0.61706044  0.11781757  0.84350757     0.03190
C1697       C  0.58872194  0.13289424  0.83233043    -0.12960
C1698       C  0.58140156  0.12439012  0.80716797     0.00690
C1699       C  0.60266989  0.09927688  0.79356310    -0.11490
C1700       C  0.63146370  0.08428248  0.80487165     0.03180
C1701       C  0.63750951  0.09260849  0.82997795    -0.10910
H1702       H  0.57443779  0.15470383  0.84237983     0.08780
H1703       H  0.59883973  0.09487368  0.77377236     0.06310
H1704       H  0.66017324  0.08246921  0.83849668     0.06150
C1705       C  0.60437615  0.10931865  0.65525789     0.03190
C1706       C  0.57759478  0.12254364  0.67001873    -0.12960
C1707       C  0.57893837  0.12199685  0.69607487     0.00690
C1708       C  0.60615127  0.10473616  0.70756479    -0.11490
C1709       C  0.63317105  0.09137550  0.69311148     0.03180
C1710       C  0.63298173  0.09608432  0.66723711    -0.10910
H1711       H  0.55589020  0.13481244  0.66133480     0.08780
H1712       H  0.60735239  0.10402177  0.72771067     0.06310
H1713       H  0.65478313  0.08827805  0.65656101     0.06150
C1714       C  0.59379385  0.40245402  0.65453973     0.03190
C1715       C  0.57560598  0.37627972  0.66895933    -0.12960
C1716       C  0.58020357  0.37402868  0.69473008     0.00690
C1717       C  0.60726584  0.39320008  0.70555814    -0.11490
C1718       C  0.62915572  0.41478966  0.69066833     0.03180
C1719       C  0.62157876  0.42055420  0.66547365    -0.10910
H1720       H  0.55738208  0.35778845  0.66028925     0.08780
H1721       H  0.61211042  0.39000591  0.72526234     0.06310
H1722       H  0.63653177  0.44041082  0.65483217     0.06150
C1723       C  0.88824757  0.10743808  0.65569585     0.03190
C1724       C  0.91436178  0.12320053  0.66975001    -0.12960
C1725       C  0.91359361  0.12286261  0.69589691     0.00690
C1726       C  0.88727781  0.10434138  0.70805251    -0.11490
C1727       C  0.86055683  0.08945309  0.69416220     0.03180
C1728       C  0.86050523  0.09294933  0.66821927    -0.10910
H1729       H  0.93509510  0.13668283  0.66037593     0.08780
H1730       H  0.88636305  0.10399495  0.72821097     0.06310
H1731       H  0.83918730  0.08320375  0.65777901     0.06150
C1732       C  0.89660539  0.40237352  0.65537332     0.03190
C1733       C  0.91946226  0.38155724  0.66962928    -0.12960
C1734       C  0.91376202  0.37547793  0.69508669     0.00690
C1735       C  0.88435284  0.38977996  0.70606841    -0.11490
C1736       C  0.86062066  0.40928359  0.69163597     0.03180
C1737       C  0.86686276  0.41520023  0.66628170    -0.10910
H1738       H  0.94219944  0.37108174  0.66102329     0.08780
H1739       H  0.87961285  0.38512378  0.72568896     0.06310
H1740       H  0.84990475  0.43258395  0.65555787     0.06150
O1741       O  0.81392151  0.32431541  0.95165004    -0.75230
O1742       O  0.78280961  0.29099379  0.92339723    -0.54140
C1743       C  0.80639025  0.31426614  0.92909234     0.78500
O1744       O  0.80839675  0.17492101  0.03646320    -0.59830
O1745       O  0.77769712  0.21182165  0.06334618    -0.52860
C1746       C  0.79949601  0.18574400  0.05861757     0.70510
O1747       O  0.81326453  0.17619887  0.95185881    -0.74390
O1748       O  0.78304724  0.21015827  0.92411785    -0.54950
C1749       C  0.80585850  0.18576199  0.92949496     0.76510
O1750       O  0.80772849  0.32999145  0.03678234    -0.59530
O1751       O  0.77650914  0.29489213  0.06372164    -0.52650
C1752       C  0.79807630  0.32093233  0.05889056     0.73110
Zr1753     Zr  0.79372654  0.30979446  0.99400026     2.54710
O1754       O  0.85391654  0.30943182  0.99647982    -0.80100
O1755       O  0.79192694  0.38000430  0.99288598    -0.93520
Zr1756     Zr  0.79371025  0.19344811  0.99379740     2.64680
O1757       O  0.85402813  0.19384395  0.99455036    -0.98470
O1758       O  0.79213511  0.12317541  0.99289565    -0.80530
O1759       O  0.79494752  0.25126504  0.97046954    -0.83890
O1760       O  0.79390473  0.25199932  0.01735218    -2.18600
O1761       O  0.67546901  0.32754414  0.03586156    -0.67280
O1762       O  0.70530769  0.29167994  0.06269143    -0.51850
C1763       C  0.68303097  0.31690070  0.05807284     0.71490
O1764       O  0.67565147  0.17882697  0.94969530    -0.60190
O1765       O  0.70861604  0.21146020  0.92302192    -0.52170
C1766       C  0.68477249  0.18823647  0.92753891     0.73290
O1767       O  0.67549613  0.17616203  0.03417230    -0.71580
O1768       O  0.70694408  0.20970491  0.06224559    -0.50260
C1769       C  0.68419385  0.18529238  0.05656780     0.74680
O1770       O  0.67794558  0.32713153  0.95058721    -0.66910
O1771       O  0.70942403  0.29200686  0.92321636    -0.54110
C1772       C  0.68702158  0.31728325  0.92826367     0.73060
Zr1773     Zr  0.69392426  0.30991623  0.99318015     2.77540
O1774       O  0.63362258  0.30951180  0.99181119    -0.97660
O1775       O  0.69587460  0.38012757  0.99406712    -0.78480
Zr1776     Zr  0.69421234  0.19358195  0.99219787     2.70070
O1777       O  0.63400508  0.18980948  0.99263114    -0.79730
O1778       O  0.69952404  0.12359221  0.99018137    -0.98810
Zr1779     Zr  0.74535093  0.25144509  0.94710920     2.21500
Zr1780     Zr  0.74260419  0.25197008  0.03909849     2.11130
O1781       O  0.69265220  0.25182309  0.01603014    -2.47500
O1782       O  0.69430985  0.25164956  0.96921148    -0.79520
O1783       O  0.74324620  0.31088220  0.01720572    -0.71720
O1784       O  0.74473275  0.19247477  0.96918238    -2.32680
O1785       O  0.74445580  0.31069315  0.96996496    -2.28880
O1786       O  0.74315257  0.19258262  0.01665603    -0.73480
H1787       H  0.81237873  0.25225036  0.02871351     0.78520
H1788       H  0.74500954  0.17056297  0.95782955     0.79610
H1789       H  0.67343775  0.25173406  0.02683357     0.81830
H1790       H  0.74478221  0.33242239  0.95890572     0.79440
H1791       H  0.77579255  0.11648819  0.97984892     0.42470
H1792       H  0.71294702  0.11705743  0.00491830     0.41440
H1793       H  0.62658308  0.21705809  0.99347340     0.41120
H1794       H  0.62671653  0.29394496  0.00625088     0.39060
H1795       H  0.71498619  0.38644657  0.00486107     0.42190
H1796       H  0.78005425  0.38601504  0.97732700     0.36970
H1797       H  0.86049496  0.28379670  0.98967631     0.43090
H1798       H  0.85981676  0.21073435  0.00891057     0.39500
H1799       H  0.62705809  0.33626738  0.99636650     0.44420
H1800       H  0.81513733  0.38771227  0.98960234     0.43150
H1801       H  0.86027509  0.16753403  0.99975830     0.43280
H1802       H  0.67704727  0.11397357  0.99414747     0.43640
C1803       C  0.62525718  0.37937402  0.14929035     0.03190
C1804       C  0.64037235  0.41027810  0.16184781    -0.12960
C1805       C  0.63385375  0.41736154  0.18732267     0.00690
C1806       C  0.61158612  0.39362417  0.20000320    -0.11490
C1807       C  0.59664208  0.36264068  0.18738614     0.03180
C1808       C  0.60277281  0.35619445  0.16201757    -0.10910
H1809       H  0.65952717  0.42650627  0.15240784     0.08780
H1810       H  0.60731942  0.39784745  0.21981947     0.06310
H1811       H  0.59173276  0.33151485  0.15257417     0.06150
C1812       C  0.85630233  0.13566380  0.15098722     0.03190
C1813       C  0.87675207  0.16299027  0.16253161    -0.12960
C1814       C  0.88298844  0.16104607  0.18811681     0.00690
C1815       C  0.86922713  0.13111550  0.20219962    -0.11490
C1816       C  0.84930203  0.10313100  0.19053770     0.03180
C1817       C  0.84390820  0.10495330  0.16478105    -0.10910
H1818       H  0.88639434  0.18690248  0.15190992     0.08780
H1819       H  0.87303343  0.13045009  0.22214945     0.06310
H1820       H  0.82680210  0.08490506  0.15597986     0.06150
C1821       C  0.85531402  0.38060674  0.14977285     0.03190
C1822       C  0.84344431  0.41329988  0.16274691    -0.12960
C1823       C  0.84909400  0.41832318  0.18843136     0.00690
C1824       C  0.86852661  0.39132603  0.20089927    -0.11490
C1825       C  0.88103939  0.35890676  0.18795731     0.03180
C1826       C  0.87448437  0.35364181  0.16252328    -0.10910
H1827       H  0.82707200  0.43312021  0.15332259     0.08780
H1828       H  0.87270129  0.39455821  0.22075855     0.06310
H1829       H  0.88364987  0.32803957  0.15284598     0.06150
O1830       O  0.68745157  0.43560475  0.19623630    -0.75230
O1831       O  0.64600053  0.46581306  0.21820385    -0.54140
C1832       C  0.65690142  0.44172078  0.20148054     0.78500
O1833       O  0.79383583  0.43061109  0.29440619    -0.59830
O1834       O  0.83452902  0.46494688  0.27483546    -0.52860
C1835       C  0.82419973  0.43808751  0.28943002     0.70510
O1836       O  0.68515664  0.43072178  0.29273181    -0.74390
O1837       O  0.64499931  0.46474586  0.27254825    -0.54950
C1838       C  0.65499045  0.43820785  0.28734318     0.76510
O1839       O  0.79571918  0.43764757  0.19669977    -0.59530
O1840       O  0.83626681  0.46661217  0.21985571    -0.52650
C1841       C  0.82602030  0.44318141  0.20257590     0.73110
Zr1842     Zr  0.74119777  0.45592174  0.20982178     2.54710
O1843       O  0.74200932  0.38567002  0.21019172    -0.80100
O1844       O  0.74296743  0.45891185  0.16451165    -0.93520
Zr1845     Zr  0.73974990  0.45392050  0.28306451     2.64680
O1846       O  0.73840463  0.38360116  0.28338495    -0.98470
O1847       O  0.73909818  0.46026306  0.32833021    -0.80530
O1848       O  0.70803043  0.45384894  0.24607901    -0.83890
O1849       O  0.77289676  0.45409688  0.24659020    -2.18600
O1850       O  0.79550264  0.08713619  0.20032462    -0.67280
O1851       O  0.83644326  0.05516376  0.22088373    -0.51850
C1852       C  0.82598158  0.08003472  0.20507504     0.71490
O1853       O  0.68457923  0.09078661  0.29354678    -0.60190
O1854       O  0.64448935  0.05792199  0.27207698    -0.52170
C1855       C  0.65450714  0.08463377  0.28720324     0.73290
O1856       O  0.79229642  0.09213468  0.29560604    -0.71580
O1857       O  0.83354980  0.06050240  0.27409224    -0.50260
C1858       C  0.82264513  0.08697532  0.28932476     0.74680
O1859       O  0.68578283  0.08735381  0.19934905    -0.66910
O1860       O  0.64455484  0.05489245  0.21946921    -0.54110
C1861       C  0.65518358  0.08005574  0.20386557     0.73060
Zr1862     Zr  0.74046283  0.06765917  0.21196951     2.77540
O1863       O  0.73907568  0.13796326  0.21289989    -0.97660
O1864       O  0.74337273  0.06211157  0.16679614    -0.78480
Zr1865     Zr  0.73906032  0.06520425  0.28550166     2.70070
O1866       O  0.73838924  0.13410727  0.29502835    -0.79730
O1867       O  0.73741864  0.05013173  0.32964301    -0.98810
Zr1868     Zr  0.67455731  0.01061145  0.24652618     2.21500
Zr1869     Zr  0.80603410  0.01122090  0.24803011     2.11130
O1870       O  0.77179416  0.06768692  0.24885053    -2.47500
O1871       O  0.70762006  0.06748896  0.24845583    -0.79520
O1872       O  0.77423417  0.01198338  0.21064920    -0.71720
O1873       O  0.70550249  0.00951118  0.28451986    -2.32680
O1874       O  0.70763162  0.01163728  0.20957686    -2.28880
O1875       O  0.77343437  0.00982913  0.28543542    -0.73480
H1876       H  0.78659070  0.43120459  0.24604044     0.78520
H1877       H  0.69096501  0.00926694  0.29887979     0.79610
H1878       H  0.78489861  0.09096145  0.24892754     0.81830
H1879       H  0.69412860  0.01188800  0.19478186     0.79440
H1880       H  0.71542171  0.46315549  0.33293577     0.42470
H1881       H  0.76094015  0.04985257  0.33478465     0.41440
H1882       H  0.73897952  0.14647309  0.27852306     0.41120
H1883       H  0.75934999  0.14582206  0.22193777     0.39060
H1884       H  0.76196787  0.04408727  0.16335930     0.42190
H1885       H  0.72287153  0.47350949  0.15987293     0.36970
H1886       H  0.72926739  0.37887540  0.22531234     0.43090
H1887       H  0.75676967  0.37522563  0.27223615     0.39500
H1888       H  0.74324715  0.14543243  0.19543605     0.44420
H1889       H  0.73859413  0.43211807  0.15874360     0.43150
H1890       H  0.74571766  0.37659437  0.30030580     0.43280
H1891       H  0.72805408  0.07360064  0.33777592     0.43640
O1892       O  0.54268631  0.34532688  0.19528343    -0.75230
O1893       O  0.58376319  0.31065878  0.21389196    -0.54140
C1894       C  0.57303307  0.33797052  0.19996507     0.78500
O1895       O  0.93627952  0.33568676  0.29254483    -0.59830
O1896       O  0.89523044  0.30690780  0.26984965    -0.52860
C1897       C  0.90580763  0.33037098  0.28703659     0.70510
O1898       O  0.54463639  0.33646429  0.29127502    -0.74390
O1899       O  0.58553117  0.30749696  0.26803425    -0.54950
C1900       C  0.57503283  0.33081786  0.28534765     0.76510
O1901       O  0.93518311  0.34114265  0.19423634    -0.59530
O1902       O  0.89509365  0.30749767  0.21493180    -0.52650
C1903       C  0.90504020  0.33383131  0.19985384     0.73110
Zr1904     Zr  0.48946396  0.31878439  0.20485691     2.54710
O1905       O  0.48742031  0.38888817  0.20294147    -0.80100
O1906       O  0.99011920  0.31051245  0.15970636    -0.93520
Zr1907     Zr  0.49038541  0.31735778  0.27815581     2.64680
O1908       O  0.49101265  0.38763073  0.27723602    -0.98470
O1909       O  0.99021247  0.31538114  0.32350337    -0.80530
O1910       O  0.52228617  0.31964899  0.24123629    -0.83890
O1911       O  0.95757946  0.31906217  0.24194963    -2.18600
O1912       O  0.93664080  0.18303105  0.19231772    -0.67280
O1913       O  0.89620006  0.21363531  0.21533540    -0.51850
C1914       C  0.90652462  0.18804581  0.19932029     0.71490
O1915       O  0.54669258  0.18691465  0.28721097    -0.60190
O1916       O  0.58709768  0.21980704  0.26638009    -0.52170
C1917       C  0.57705237  0.19470251  0.28215281     0.73290
O1918       O  0.93664716  0.18497486  0.28833703    -0.71580
O1919       O  0.89531206  0.21772090  0.26875221    -0.50260
C1920       C  0.90606380  0.19243279  0.28415225     0.74680
O1921       O  0.54569318  0.18293881  0.19216698    -0.66910
O1922       O  0.58573987  0.21616500  0.21348347    -0.54110
C1923       C  0.57590547  0.18949470  0.19817440     0.73060
Zr1924     Zr  0.99098014  0.20723806  0.20243499     2.77540
O1925       O  0.99305418  0.13722773  0.19737071    -0.97660
O1926       O  0.99108329  0.21805428  0.15772384    -0.78480
Zr1927     Zr  0.99125323  0.20550320  0.27589548     2.70070
O1928       O  0.99248349  0.13524684  0.27513087    -0.79730
O1929       O  0.98955789  0.21095014  0.32110618    -0.98810
Zr1930     Zr  0.55601691  0.26319365  0.23991805     2.21500
Zr1931     Zr  0.92473004  0.26185503  0.24126844     2.11130
O1932       O  0.95892427  0.20526515  0.23953670    -2.47500
O1933       O  0.52335355  0.20594218  0.23897230    -0.79520
O1934       O  0.95632333  0.26259627  0.20334824    -0.71720
O1935       O  0.52399840  0.26169866  0.27747736    -2.32680
O1936       O  0.52398108  0.26354065  0.20255707    -2.28880
O1937       O  0.95749612  0.26113689  0.27809958    -0.73480
H1938       H  0.94381661  0.34189191  0.24264397     0.78520
H1939       H  0.53796446  0.26143352  0.29202459     0.79610
H1940       H  0.94574665  0.18203762  0.23958897     0.81830
H1941       H  0.53807246  0.26405488  0.18795548     0.79440
H1942       H  0.50897366  0.29830891  0.32777923     0.42470
H1943       H  0.97461400  0.23305682  0.32469524     0.41440
H1944       H  0.50038383  0.12832766  0.25814068     0.41120
H1945       H  0.97619773  0.12729539  0.20910271     0.39060
H1946       H  0.96835431  0.22705894  0.15405183     0.42190
H1947       H  0.51387215  0.30922295  0.15504866     0.36970
H1948       H  0.48722640  0.39759730  0.22059689     0.43090
H1949       H  0.96871917  0.39513108  0.27139551     0.39500
H1950       H  0.98390202  0.13185053  0.18059764     0.44420
H1951       H  0.48249103  0.33566951  0.15334143     0.43150
H1952       H  0.49138884  0.39577934  0.29499296     0.43280
H1953       H  0.97684430  0.18812606  0.32652180     0.43640
C1954       C  0.62762951  0.13634058  0.14972330     0.03190
C1955       C  0.63663127  0.10393596  0.16350716    -0.12960
C1956       C  0.63191450  0.10330154  0.18939231     0.00690
C1957       C  0.61302239  0.13244170  0.20103017    -0.11490
C1958       C  0.60024895  0.16283146  0.18694220     0.03180
C1959       C  0.60809499  0.16509963  0.16145656    -0.10910
H1960       H  0.64985381  0.08033533  0.15456951     0.08780
H1961       H  0.60883906  0.13193511  0.22095797     0.06310
H1962       H  0.59960084  0.18969128  0.15099748     0.06150
C1963       C  0.60687090  0.14034941  0.33591222     0.03190
C1964       C  0.59779568  0.17260887  0.32210229    -0.12960
C1965       C  0.60090035  0.17204942  0.29610452     0.00690
C1966       C  0.61815754  0.14191331  0.28419427    -0.11490
C1967       C  0.63072401  0.11157328  0.29825594     0.03180
C1968       C  0.62453638  0.11042392  0.32390723    -0.10910
H1969       H  0.58537391  0.19673205  0.33112350     0.08780
H1970       H  0.62121392  0.14165574  0.26414381     0.06310
H1971       H  0.63301297  0.08577795  0.33433494     0.06150
C1972       C  0.87232339  0.13861880  0.33848759     0.03190
C1973       C  0.85029248  0.11318956  0.32665092    -0.12960
C1974       C  0.84579636  0.11424896  0.30086352     0.00690
C1975       C  0.86157941  0.14283810  0.28686645    -0.11490
C1976       C  0.88269452  0.16945259  0.29872246     0.03180
C1977       C  0.88788037  0.16717034  0.32453294    -0.10910
H1978       H  0.83876096  0.09038639  0.33725593     0.08780
H1979       H  0.85847809  0.14339036  0.26684267     0.06310
H1980       H  0.90671745  0.18503275  0.33324882     0.06150
C1981       C  0.60566008  0.39210021  0.33819993     0.03190
C1982       C  0.62431317  0.41917337  0.32494238    -0.12960
C1983       C  0.63083452  0.41363404  0.29948924     0.00690
C1984       C  0.61783890  0.38168191  0.28668313    -0.11490
C1985       C  0.59816134  0.35521083  0.29936761     0.03180
C1986       C  0.59322491  0.35973416  0.32521057    -0.10910
H1987       H  0.63354021  0.44492092  0.33426169     0.08780
H1988       H  0.62183690  0.37842626  0.26676773     0.06310
H1989       H  0.57754168  0.33932733  0.33480641     0.06150
C1990       C  0.87736693  0.39523753  0.33930988     0.03190
C1991       C  0.89006348  0.36264303  0.32676185    -0.12960
C1992       C  0.88291910  0.35552510  0.30142096     0.00690
C1993       C  0.86141538  0.38062534  0.28905858    -0.11490
C1994       C  0.84821806  0.41309878  0.30168157     0.03200
C1995       C  0.85591781  0.42001744  0.32679109    -0.10910
H1996       H  0.90839291  0.34506811  0.33601929     0.08780
H1997       H  0.85640682  0.37619159  0.26940258     0.06310
H1998       H  0.84648066  0.44569159  0.33623666     0.06150
O1999       O  0.56177584  0.45126412  0.53762739    -0.75230
O2000       O  0.53049394  0.48897000  0.56382427    -0.54140
C2001       C  0.55203130  0.46238307  0.55950453     0.78500
O2002       O  0.56333162  0.09993264  0.45086649    -0.59830
O2003       O  0.53316364  0.06320044  0.42360094    -0.52860
C2004       C  0.55495520  0.08896853  0.42883090     0.70510
O2005       O  0.56671285  0.09904018  0.53487622    -0.74390
O2006       O  0.53242166  0.06990942  0.56274319    -0.54950
C2007       C  0.55742763  0.09072683  0.55711761     0.76510
O2008       O  0.56227020  0.44467787  0.45295030    -0.59530
O2009       O  0.53201542  0.47797177  0.42460255    -0.52650
C2010       C  0.55332671  0.45217851  0.43053765     0.73110
Zr2011     Zr  0.54661960  0.46785154  0.49479447     2.54710
O2012       O  0.60687370  0.47059646  0.49461107    -0.80100
O2013       O  0.54643282  0.39761122  0.49574463    -0.93520
Zr2014     Zr  0.54614359  0.08418442  0.49300611     2.64680
O2015       O  0.60640656  0.08769852  0.49241973    -0.98470
O2016       O  0.54179348  0.15433331  0.49364321    -0.80530
O2017       O  0.54710223  0.02752977  0.51717689    -0.83890
O2018       O  0.54767871  0.02446362  0.47040750    -2.18600
O2019       O  0.93042993  0.44646271  0.45219119    -0.67280
O2020       O  0.96129515  0.48045056  0.42470927    -0.51850
C2021       C  0.93897042  0.45534559  0.42974602     0.71490
O2022       O  0.92320927  0.09582356  0.53414322    -0.60190
O2023       O  0.95869978  0.06958044  0.56220333    -0.52170
C2024       C  0.93257784  0.08836475  0.55648672     0.73290
O2025       O  0.92878765  0.09760988  0.44926969    -0.71580
O2026       O  0.96296148  0.06362666  0.42330775    -0.50260
C2027       C  0.93866171  0.08670938  0.42734045     0.74680
O2028       O  0.93134549  0.45151148  0.53851685    -0.66910
O2029       O  0.96137359  0.49071457  0.56390169    -0.54110
C2030       C  0.94012717  0.46390571  0.56040435     0.73060
Zr2031     Zr  0.94636758  0.46756260  0.49478031     2.77540
O2032       O  0.88609120  0.47040431  0.49593516    -0.97660
O2033       O  0.94635014  0.39734314  0.49542226    -0.78480
Zr2034     Zr  0.94635818  0.08411776  0.49219849     2.70070
O2035       O  0.88648135  0.09128684  0.48960358    -0.79730
O2036       O  0.95228669  0.15401559  0.49392655    -0.98810
Zr2037     Zr  0.99617920  0.02954519  0.53890564     2.21500
Zr2038     Zr  0.99740390  0.02267033  0.44778933     2.11130
O2039       O  0.94633412  0.02408625  0.47009281    -2.47500
O2040       O  0.94562835  0.02759018  0.51673667    -0.79520
O2041       O  0.99678276  0.46535367  0.47135908    -0.71720
O2042       O  0.99582926  0.08757156  0.51618773    -2.32680
O2043       O  0.99631334  0.46872549  0.51798659    -2.28880
O2044       O  0.99673903  0.08322596  0.46896065    -0.73480
H2045       H  0.56666371  0.02364162  0.45936940     0.78520
H2046       H  0.99549919  0.10989367  0.52720560     0.79610
H2047       H  0.92767002  0.02325142  0.45892201     0.81830
H2048       H  0.99624640  0.44768946  0.52958003     0.79440
H2049       H  0.53512601  0.16122316  0.51092768     0.42470
H2050       H  0.96584789  0.16015592  0.47908315     0.41440
H2051       H  0.87790495  0.06464651  0.49104140     0.41120
H2052       H  0.87987580  0.48418982  0.48062688     0.39060
H2053       H  0.96668358  0.38973934  0.48616109     0.42190
H2054       H  0.53089720  0.39116140  0.50939456     0.36970
H2055       H  0.61220751  0.99330347  0.50526938     0.43090
H2056       H  0.61346324  0.06826200  0.47974352     0.39500
H2057       H  0.87897497  0.44342270  0.49284578     0.44420
H2058       H  0.56856864  0.39060970  0.50214835     0.43150
H2059       H  0.61156968  0.11293098  0.48491883     0.43280
H2060       H  0.92992059  0.16396286  0.49003225     0.43640
C2061       C  0.93669388  0.44363989  0.38385485    -0.20240
C2062       C  0.92261398  0.43656380  0.40749953    -0.06810
C2063       C  0.89327140  0.41388783  0.40846418     0.14060
C2064       C  0.87889806  0.40020075  0.38602298    -0.20300
C2065       C  0.89306008  0.40852606  0.36278081    -0.06820
C2066       C  0.92240426  0.43024237  0.36176393     0.14050
C2067       C  0.93856227  0.43993862  0.33720004    -0.23650
H2068       H  0.95894595  0.46078700  0.38228154     0.15330
H2069       H  0.85635762  0.38327574  0.38656219     0.15360
C2070       C  0.87649570  0.40445027  0.43273529    -0.23600
H2071       H  0.96134084  0.45747139  0.33974702     0.05580
H2072       H  0.92110474  0.45673600  0.32567336     0.08800
H2073       H  0.94561523  0.41298921  0.32704668     0.08800
H2074       H  0.86894569  0.43149095  0.44259282     0.08780
H2075       H  0.89357932  0.38763604  0.44455805     0.08780
H2076       H  0.85386292  0.38679599  0.42981331     0.05560
C2077       C  0.56105969  0.39576106  0.37024087    -0.20240
C2078       C  0.59476276  0.40071685  0.36433090    -0.06810
C2079       C  0.61598392  0.41698212  0.38272800     0.14060
C2080       C  0.60217790  0.43238312  0.40487181    -0.20300
C2081       C  0.56811899  0.42975387  0.40969266    -0.06820
C2082       C  0.54784289  0.40891337  0.39297085     0.14050
C2083       C  0.51227379  0.40021311  0.39922217    -0.23650
H2084       H  0.54450433  0.38279777  0.35669459     0.15330
H2085       H  0.61798572  0.44718725  0.41818582     0.15360
C2086       C  0.65314540  0.41799914  0.37993252    -0.23600
H2087       H  0.49979771  0.38361450  0.38410036     0.05580
H2088       H  0.99857055  0.42737818  0.40230514     0.08800
H2089       H  0.51109581  0.38305530  0.41649834     0.08800
H2090       H  0.66165663  0.44839844  0.37891563     0.08780
H2091       H  0.66212780  0.40178552  0.36326404     0.08780
H2092       H  0.66469197  0.40437291  0.39634897     0.05560
C2093       C  0.90431092  0.09189109  0.36157276    -0.20240
C2094       C  0.88722580  0.12684600  0.36223959    -0.06810
C2095       C  0.88630593  0.14909438  0.38447774     0.14060
C2096       C  0.90304567  0.13552082  0.40566931    -0.20300
C2097       C  0.92074477  0.10035733  0.40487078    -0.06820
C2098       C  0.92066637  0.07809616  0.38234194     0.14050
C2099       C  0.93616916  0.03866875  0.37981629    -0.23650
H2100       H  0.90499045  0.07514894  0.34431720     0.15330
H2101       H  0.90255748  0.15256817  0.42276273     0.15360
C2102       C  0.86730298  0.18647701  0.38591190    -0.23600
H2103       H  0.93063026  0.02447864  0.36161213     0.05580
H2104       H  0.92576515  0.02016607  0.39453704     0.08800
H2105       H  0.96354728  0.04049552  0.38111207     0.08800
H2106       H  0.84089368  0.18111094  0.38134389     0.08780
H2107       H  0.87777305  0.20728936  0.37249563     0.08780
H2108       H  0.86843726  0.19981241  0.40483715     0.05560
C2109       C  0.61625722  0.11960191  0.37949701    -0.20240
C2110       C  0.59451102  0.13499391  0.36176874    -0.06810
C2111       C  0.56029406  0.13862227  0.36787356     0.14060
C2112       C  0.54891542  0.12548322  0.39080545    -0.20300
C2113       C  0.57026000  0.10803355  0.40757486    -0.06820
C2114       C  0.60440319  0.10546289  0.40222700     0.14050
C2115       C  0.62783029  0.08558271  0.41962341    -0.23650
H2116       H  0.64235195  0.11668046  0.37494512     0.15330
H2117       H  0.52270025  0.12722888  0.39532005     0.15360
C2118       C  0.53473179  0.15351842  0.35005139    -0.23600
H2119       H  0.65351066  0.08475546  0.41207978     0.05580
H2120       H  0.61962923  0.05538201  0.42251999     0.08800
H2121       H  0.62826839  0.10122961  0.43780074     0.08800
H2122       H  0.53681729  0.13832348  0.33175441     0.08780
H2123       H  0.53764349  0.18505585  0.34798439     0.08780
H2124       H  0.50909928  0.14889633  0.35703220     0.05560
C2125       C  0.67676523  0.32103381  0.10402320    -0.20240
C2126       C  0.66601406  0.33396767  0.08058395    -0.06810
C2127       C  0.64032333  0.36209936  0.08002353     0.14060
C2128       C  0.62728131  0.37695097  0.10270092    -0.20300
C2129       C  0.63950910  0.36468703  0.12567037    -0.06820
C2130       C  0.66470887  0.33670829  0.12630753     0.14050
C2131       C  0.67922793  0.32340691  0.15061581    -0.23650
H2132       H  0.69514942  0.29839997  0.10526847     0.15330
H2133       H  0.60749510  0.39814170  0.10256117     0.15360
C2134       C  0.62600607  0.37619735  0.05596572    -0.23600
H2135       H  0.69931820  0.30183249  0.14765251     0.05580
H2136       H  0.65973312  0.30987227  0.16220919     0.08800
H2137       H  0.68991356  0.34843369  0.16092507     0.08800
H2138       H  0.61553612  0.35151104  0.04519971     0.08780
H2139       H  0.64550549  0.39065789  0.04484989     0.08780
H2140       H  0.60572688  0.39742200  0.05926559     0.05560
C2141       C  0.84731112  0.34494958  0.08235118    -0.20240
C2142       C  0.81273494  0.34133722  0.08063743    -0.06810
C2143       C  0.79265344  0.35506010  0.10059194     0.14060
C2144       C  0.80754796  0.36957645  0.12222460    -0.20300
C2145       C  0.84209374  0.37088778  0.12468312    -0.06820
C2146       C  0.86228929  0.35965464  0.10413446     0.14050
C2147       C  0.89948806  0.36307758  0.10445569    -0.23650
H2148       H  0.86279450  0.33510619  0.06693959     0.15330
H2149       H  0.79198565  0.37825414  0.13787677     0.15360
C2150       C  0.75540664  0.35406094  0.09946104    -0.23600
H2151       H  0.90775198  0.38093122  0.08858880     0.05580
H2152       H  0.91080687  0.33393755  0.10254111     0.08800
H2153       H  0.90885218  0.37706094  0.12172723     0.08800
H2154       H  0.74705190  0.32369659  0.09932364     0.08780
H2155       H  0.74665912  0.36873262  0.08246383     0.08780
H2156       H  0.74373295  0.36864601  0.11588214     0.05560
C2157       C  0.68852384  0.15136024  0.09611716    -0.20240
C2158       C  0.66787186  0.16642987  0.07786530    -0.06810
C2159       C  0.63334138  0.16788477  0.08216151     0.14060
C2160       C  0.62056483  0.15570032  0.10524022    -0.20300
C2161       C  0.64154590  0.14242059  0.12418768    -0.06820
C2162       C  0.67613445  0.13959422  0.11917219     0.14050
C2163       C  0.70095914  0.12662123  0.13819868    -0.23650
H2164       H  0.71498132  0.15017612  0.09255518     0.15330
H2165       H  0.59417741  0.15788118  0.10886106     0.15360
C2166       C  0.61024803  0.18431744  0.06310157    -0.23600
H2167       H  0.72676111  0.13028284  0.13149790     0.05580
H2168       H  0.69821959  0.09541376  0.14149659     0.08800
H2169       H  0.69806069  0.14353313  0.15581466     0.08800
H2170       H  0.61154667  0.16669006  0.04568075     0.08780
H2171       H  0.61738255  0.21453024  0.05903407     0.08780
H2172       H  0.58413832  0.18441874  0.06975708     0.05560
C2173       C  0.79528171  0.16829034  0.10284281    -0.20240
C2174       C  0.81450084  0.16779556  0.08088071    -0.06810
C2175       C  0.84770899  0.15442520  0.08189755     0.14060
C2176       C  0.86070294  0.14263956  0.10488780    -0.20300
C2177       C  0.84142747  0.14437685  0.12669718    -0.06820
C2178       C  0.80845636  0.15771916  0.12569323     0.14050
C2179       C  0.78764476  0.16317091  0.14896926    -0.23650
H2180       H  0.76989666  0.17848311  0.10239304     0.15330
H2181       H  0.88622366  0.13305683  0.10603309     0.15360
C2182       C  0.87006494  0.15428665  0.05935032    -0.23600
H2183       H  0.76379726  0.17783585  0.14507529     0.05580
H2184       H  0.80105276  0.18148768  0.16273247     0.08800
H2185       H  0.78203742  0.13479405  0.15726459     0.08800
H2186       H  0.87202785  0.18395377  0.05196787     0.08780
H2187       H  0.86005348  0.13449853  0.04480018     0.08780
H2188       H  0.89546604  0.14428224  0.06386517     0.05560
C2189       C  0.89288056  0.40285815  0.60870045    -0.20240
C2190       C  0.90673715  0.41745383  0.63087031    -0.06810
C2191       C  0.92940452  0.44809621  0.62986083     0.14060
C2192       C  0.93928054  0.46196621  0.60672940    -0.20300
C2193       C  0.92655331  0.44702451  0.58401396    -0.06820
C2194       C  0.90235456  0.41736392  0.58521654     0.14050
C2195       C  0.88617489  0.40102400  0.56217240    -0.23650
H2196       H  0.87465442  0.38000838  0.60981053     0.15330
H2197       H  0.95720395  0.48517542  0.60675010     0.15360
C2198       C  0.94252199  0.46719195  0.65334501    -0.23600
H2199       H  0.86738593  0.37881393  0.56676673     0.05580
H2200       H  0.90509956  0.38713986  0.54989977     0.08800
H2201       H  0.87340781  0.42442190  0.55204749     0.08800
H2202       H  0.95669300  0.44620484  0.66447817     0.08780
H2203       H  0.92161064  0.47834851  0.66488880     0.08780
H2204       H  0.95919704  0.49176479  0.64919076     0.05560
C2205       C  0.89701377  0.06687309  0.58990704    -0.20240
C2206       C  0.91121435  0.09832691  0.57778918    -0.06810
C2207       C  0.91283658  0.13446168  0.59012489     0.14060
C2208       C  0.90218892  0.13749829  0.61503579    -0.20300
C2209       C  0.89100103  0.10495694  0.62805537    -0.06820
C2210       C  0.88736342  0.06933128  0.61494314     0.14050
C2211       C  0.87654505  0.03267281  0.62746177    -0.23650
H2212       H  0.89640739  0.03907554  0.58030948     0.15330
H2213       H  0.90464344  0.16494706  0.62482888     0.15360
C2214       C  0.92763304  0.16947104  0.57809387    -0.23600
H2215       H  0.87937355  0.00702541  0.61497137     0.05580
H2216       H  0.84996648  0.03422456  0.63257305     0.08800
H2217       H  0.89172605  0.02775933  0.64425954     0.08800
H2218       H  0.90912033  0.19322672  0.57825923     0.08780
H2219       H  0.93517659  0.16387298  0.55846972     0.08780
H2220       H  0.94979712  0.17899642  0.58868380     0.05560
C2221       C  0.60662080  0.41990955  0.61014415    -0.20240
C2222       C  0.58268123  0.41280953  0.62883673    -0.06810
C2223       C  0.54874411  0.41969032  0.62323912     0.14060
C2224       C  0.54020360  0.43347642  0.59980662    -0.20300
C2225       C  0.56407832  0.44226646  0.58181957    -0.06820
C2226       C  0.59776223  0.43504830  0.58684340     0.14050
C2227       C  0.62439496  0.44516112  0.56832600    -0.23650
H2228       H  0.63253861  0.41466074  0.61400980     0.15330
H2229       H  0.51431171  0.43878519  0.59568720     0.15360
C2230       C  0.52091175  0.41576918  0.64193926    -0.23600
H2231       H  0.64952776  0.43909688  0.57564194     0.05580
H2232       H  0.62298164  0.97637456  0.56402826     0.08800
H2233       H  0.62113201  0.42792763  0.55091731     0.08800
H2234       H  0.52713722  0.43078580  0.65971231     0.08780
H2235       H  0.51481619  0.38506067  0.64495606     0.08780
H2236       H  0.49782554  0.42894954  0.63500682     0.05560
C2237       C  0.59776374  0.07320198  0.58819199    -0.20240
C2238       C  0.57802423  0.10224219  0.57823317    -0.06810
C2239       C  0.57184875  0.13627350  0.59206743     0.14060
C2240       C  0.58470828  0.13979521  0.61622854    -0.20300
C2241       C  0.60120887  0.10869259  0.62754657    -0.06820
C2242       C  0.60881913  0.07527940  0.61283336     0.14050
C2243       C  0.62549908  0.03987788  0.62310141    -0.23650
H2244       H  0.60178983  0.04693220  0.57730907     0.15330
H2245       H  0.57943616  0.16577493  0.62705535     0.15360
C2246       C  0.54979101  0.16744668  0.58201648    -0.23600
H2247       H  0.62469573  0.01508643  0.60974282     0.05580
H2248       H  0.61283407  0.03056479  0.64039820     0.08800
H2249       H  0.65205904  0.04567073  0.62657991     0.08800
H2250       H  0.02467621  0.15564669  0.57837092     0.08780
H2251       H  0.56039463  0.17838274  0.56435850     0.08780
H2252       H  0.54720221  0.19211466  0.59535888     0.05560
C2253       C  0.63874366  0.14769332  0.90994256    -0.20240
C2254       C  0.66659677  0.17145256  0.90569000    -0.06810
C2255       C  0.67624453  0.17857520  0.88055236     0.14060
C2256       C  0.65846169  0.16148265  0.86109498    -0.20300
C2257       C  0.63153973  0.13725174  0.86551514    -0.06820
C2258       C  0.62116566  0.13049620  0.89010058     0.14050
C2259       C  0.59210170  0.10464698  0.89529797    -0.23650
H2260       H  0.63075424  0.14215583  0.92884874     0.15330
H2261       H  0.66600480  0.16644391  0.84197447     0.15360
C2262       C  0.70532970  0.20351461  0.87337953    -0.23600
H2263       H  0.58731871  0.10210180  0.91560145     0.05580
H2264       H  0.59702106  0.07531130  0.88748961     0.08800
H2265       H  0.56950685  0.11656715  0.88654059     0.08800
H2266       H  0.72843807  0.19153336  0.88122054     0.08780
H2267       H  0.70118960  0.23357084  0.88012080     0.08780
H2268       H  0.70895900  0.20477045  0.85287654     0.05560
C2269       C  0.85043248  0.32552817  0.86637491    -0.20240
C2270       C  0.85890370  0.36468718  0.86701635    -0.06810
C2271       C  0.85218173  0.38679670  0.88880975     0.14060
C2272       C  0.83608683  0.36940443  0.90915662    -0.20300
C2273       C  0.82591717  0.33057495  0.90801551    -0.06820
C2274       C  0.83397429  0.30821525  0.88638688     0.14050
C2275       C  0.82597849  0.26584090  0.88420688    -0.23650
H2276       H  0.85571143  0.30865994  0.84962305     0.15330
H2277       H  0.83045091  0.38656885  0.92569877     0.15360
C2278       C  0.86212642  0.42859853  0.89060854    -0.23600
H2279       H  0.83659791  0.25249936  0.86697321     0.05580
H2280       H  0.79877840  0.26153214  0.88345910     0.08800
H2281       H  0.83657369  0.25050225  0.90031917     0.08800
H2282       H  0.84909219  0.44547694  0.87624439     0.08780
H2283       H  0.88929092  0.43116263  0.88770709     0.08780
H2284       H  0.85586997  0.44143405  0.90913638     0.05560
C2285       C  0.66893521  0.35438144  0.86316454    -0.20240
C2286       C  0.63618681  0.36769597  0.86570973    -0.06810
C2287       C  0.62054665  0.36593473  0.88928122     0.14060
C2288       C  0.63774984  0.34971899  0.90941266    -0.20300
C2289       C  0.67044025  0.33576935  0.90669752    -0.06820
C2290       C  0.68649821  0.33932929  0.88321644     0.14050
C2291       C  0.72255793  0.32903152  0.87899841    -0.23650
H2292       H  0.68107965  0.35599028  0.84513760     0.15330
H2293       H  0.62545276  0.34771294  0.92734249     0.15360
C2294       C  0.58634646  0.38229925  0.89353787    -0.23600
H2295       H  0.73143378  0.33773867  0.86028359     0.05580
H2296       H  0.72633080  0.29741488  0.88010565     0.08800
H2297       H  0.73818375  0.34419315  0.89300731     0.08800
H2298       H  0.56791885  0.36603621  0.88235300     0.08780
H2299       H  0.58588682  0.41313918  0.88821333     0.08780
H2300       H  0.57871317  0.38056004  0.91340015     0.05560
C2301       C  0.80980313  0.17150525  0.88428056    -0.20240
C2302       C  0.82411064  0.16780863  0.90795243    -0.06810
C2303       C  0.85542438  0.14911397  0.90972446     0.14060
C2304       C  0.87060413  0.13384048  0.88797449    -0.20300
C2305       C  0.85556842  0.13722661  0.86464426    -0.06820
C2306       C  0.82523418  0.15732753  0.86272403     0.14050
C2307       C  0.80931149  0.16516491  0.83787473    -0.23650
H2308       H  0.78631132  0.18617473  0.88237656     0.15330
H2309       H  0.89417712  0.11895300  0.88915179     0.15360
C2310       C  0.87348747  0.14570468  0.93408303    -0.23600
H2311       H  0.78727383  0.18425763  0.83986227     0.05580
H2312       H  0.80079511  0.13793726  0.82894672     0.08800
H2313       H  0.82733010  0.17970336  0.82545953     0.08800
H2314       H  0.85895840  0.12775446  0.94713236     0.08780
H2315       H  0.87758063  0.17486601  0.94236505     0.08780
H2316       H  0.89811654  0.13176114  0.93158447     0.05560
O2317       O  0.92662686  0.68830943  0.79868836    -0.75230
O2318       O  0.95434264  0.63918881  0.77873154    -0.54140
C2319       C  0.93150262  0.65239828  0.79364097     0.78500
O2320       O  0.92968635  0.81252972  0.70330437    -0.59830
O2321       O  0.95709253  0.86069162  0.72433875    -0.52860
C2322       C  0.93516358  0.84817459  0.70857891     0.70510
O2323       O  0.92987270  0.68573588  0.70418960    -0.74390
O2324       O  0.95647929  0.63810551  0.72538996    -0.54950
C2325       C  0.93497027  0.65025197  0.70953953     0.76510
O2326       O  0.92873488  0.81489764  0.80015891    -0.59530
O2327       O  0.95531586  0.86282836  0.77918809    -0.52650
C2328       C  0.93322324  0.85047437  0.79483010     0.73110
Zr2329     Zr  0.94828091  0.75124132  0.78900051     2.54710
O2330       O  0.88805984  0.75275640  0.79148358    -0.80100
O2331       O  0.95482402  0.75182179  0.83408838    -0.93520
Zr2332     Zr  0.94894147  0.74956067  0.71568760     2.64680
O2333       O  0.88858489  0.74831626  0.71560060    -0.98470
O2334       O  0.95520386  0.74906381  0.67051720    -0.80530
O2335       O  0.94781559  0.71258056  0.75235743    -0.83890
O2336       O  0.94811265  0.78826988  0.75232851    -2.18600
O2337       O  0.56299590  0.81431446  0.80067004    -0.67280
O2338       O  0.53739954  0.86234672  0.77924400    -0.51850
C2339       C  0.55895223  0.84990970  0.79510056     0.71490
O2340       O  0.56379245  0.68483311  0.70521086    -0.60190
O2341       O  0.53536170  0.63739213  0.72536328    -0.52170
C2342       C  0.55776975  0.64938932  0.71003152     0.73290
O2343       O  0.56532020  0.81103555  0.70387681    -0.71580
O2344       O  0.53729540  0.85952285  0.72450395    -0.50260
C2345       C  0.55964787  0.84672918  0.70895151     0.74680
O2346       O  0.56370470  0.68695827  0.79946432    -0.66910
O2347       O  0.53633036  0.63837689  0.77900863    -0.54110
C2348       C  0.55867142  0.65114212  0.79425601     0.73060
Zr2349     Zr  0.54360744  0.75052601  0.78937776     2.77540
O2350       O  0.60390998  0.74929897  0.79158746    -0.97660
O2351       O  0.53631940  0.75073272  0.83443698    -0.78480
Zr2352     Zr  0.54465024  0.74880318  0.71616525     2.70070
O2353       O  0.60495186  0.74827732  0.71540941    -0.79730
O2354       O  0.53844917  0.74661028  0.67106837    -0.98810
Zr2355     Zr  0.49592496  0.67232338  0.75266602     2.21500
Zr2356     Zr  0.99661121  0.82810210  0.75243270     2.11130
O2357       O  0.54485122  0.78757627  0.75273926    -2.47500
O2358       O  0.54450468  0.71172695  0.75276746    -0.79520
O2359       O  0.99606436  0.79070068  0.78978181    -0.71720
O2360       O  0.49665710  0.70977440  0.71538662    -2.32680
O2361       O  0.49574316  0.71124163  0.79005232    -2.28880
O2362       O  0.99699142  0.78872312  0.71526476    -0.73480
H2363       H  0.92829734  0.80392369  0.75221680     0.78520
H2364       H  0.49687666  0.69322140  0.70073698     0.79610
H2365       H  0.56479631  0.80292040  0.75270384     0.81830
H2366       H  0.49548388  0.69533468  0.80467653     0.79440
H2367       H  0.96294838  0.72268562  0.66610238     0.42470
H2368       H  0.52861874  0.77188528  0.66687399     0.41440
H2369       H  0.61132766  0.74750883  0.73317671     0.41120
H2370       H  0.61144949  0.77050924  0.78079154     0.39060
H2371       H  0.52643683  0.77625972  0.83850529     0.42190
H2372       H  0.95783186  0.72440758  0.83852069     0.36970
H2373       H  0.88072059  0.74680934  0.77428196     0.43090
H2374       H  0.88169846  0.77062209  0.72617586     0.39500
H2375       H  0.60912934  0.75818450  0.80874227     0.44420
H2376       H  0.93257201  0.75866279  0.84067606     0.43150
H2377       H  0.88234590  0.75555679  0.69847948     0.43280
H2378       H  0.56140332  0.74778600  0.66451583     0.43640
C2379       C  0.87098067  0.61929731  0.84223748     0.03190
C2380       C  0.89908784  0.63552827  0.83123269    -0.12960
C2381       C  0.90808891  0.62608990  0.80640045     0.00690
C2382       C  0.88825066  0.59965828  0.79281889    -0.11490
C2383       C  0.85977363  0.58350592  0.80405345     0.03180
C2384       C  0.85295322  0.59154329  0.82913656    -0.10910
H2385       H  0.91212571  0.65827053  0.84120957     0.08780
H2386       H  0.89290606  0.59489613  0.77313171     0.06310
H2387       H  0.83099628  0.57946614  0.83777047     0.06150
O2388       O  0.80324514  0.57761412  0.69971509    -0.75230
O2389       O  0.84075548  0.54294059  0.72192329    -0.54140
C2390       C  0.83303802  0.56904592  0.70627441     0.78500
O2391       O  0.68835535  0.57171624  0.79666425    -0.59830
O2392       O  0.64949097  0.54179190  0.77257484    -0.52860
C2393       C  0.65801959  0.56466742  0.79034164     0.70510
O2394       O  0.80323546  0.57197077  0.79538460    -0.74390
O2395       O  0.84233034  0.53935014  0.77254176    -0.54950
C2396       C  0.83362421  0.56369880  0.78954413     0.76510
O2397       O  0.69060554  0.57797290  0.69794984    -0.59530
O2398       O  0.65242247  0.54555591  0.72111350    -0.52650
C2399       C  0.66062610  0.57057123  0.70486286     0.73110
Zr2400     Zr  0.74659020  0.55721175  0.70959236     2.54710
O2401       O  0.74659345  0.62746222  0.70947582    -0.80100
O2402       O  0.74781308  0.55337062  0.66425029    -0.93520
Zr2403     Zr  0.74574573  0.55619577  0.78398029     2.64680
O2404       O  0.74601979  0.62650074  0.78419680    -0.98470
O2405       O  0.74623372  0.55769146  0.82933538    -0.80530
O2406       O  0.77794624  0.55704044  0.74692797    -0.83890
O2407       O  0.71450516  0.55837367  0.74682998    -2.18600
O2408       O  0.68749113  0.92604854  0.69507662    -0.67280
O2409       O  0.65027565  0.95919763  0.71953058    -0.51850
C2410       C  0.65761943  0.93466311  0.70230433     0.71490
O2411       O  0.80100750  0.92435443  0.79495461    -0.60190
O2412       O  0.84054339  0.95651211  0.77305525    -0.52170
C2413       C  0.83147618  0.93252789  0.78976130     0.73290
O2414       O  0.68753597  0.92876526  0.79501449    -0.71580
O2415       O  0.64875617  0.96020455  0.77223979    -0.50260
C2416       C  0.65725826  0.93709669  0.78950923     0.74680
O2417       O  0.80248039  0.92174833  0.69637530    -0.66910
O2418       O  0.83999945  0.95404220  0.72065283    -0.54110
C2419       C  0.83234333  0.92919620  0.70375204     0.73060
Zr2420     Zr  0.74525977  0.94258959  0.70727940     2.77540
O2421       O  0.74394787  0.87237046  0.70492177    -0.97660
O2422       O  0.74695554  0.94765827  0.66210820    -0.78480
Zr2423     Zr  0.74471944  0.94128192  0.78173604     2.70070
O2424       O  0.74278759  0.87134356  0.77689668    -0.79730
O2425       O  0.74547886  0.93455579  0.82683518    -0.98810
Zr2426     Zr  0.80875138  0.99833466  0.74632913     2.21500
Zr2427     Zr  0.68265591  0.00050957  0.74599516     2.11130
O2428       O  0.71319786  0.94147480  0.74460931    -2.47500
O2429       O  0.77688072  0.94055585  0.74461875    -0.79520
O2430       O  0.71351044  0.50054298  0.70796719    -0.71720
O2431       O  0.77702857  0.99827331  0.78387909    -2.32680
O2432       O  0.77842193  0.99937683  0.70820556    -2.28880
O2433       O  0.71328980  0.99920385  0.78375176    -0.73480
H2434       H  0.70044689  0.58096868  0.74729138     0.78520
H2435       H  0.79108217  0.99791225  0.79837486     0.79610
H2436       H  0.69850976  0.91949046  0.74439345     0.81830
H2437       H  0.79328878  0.49945020  0.69403755     0.79440
H2438       H  0.75881047  0.53433025  0.83395974     0.42470
H2439       H  0.72938484  0.95400790  0.83317757     0.41440
H2440       H  0.75799218  0.86551489  0.76278814     0.41120
H2441       H  0.72522669  0.86496875  0.71583750     0.39060
H2442       H  0.73090161  0.96839665  0.65836388     0.42190
H2443       H  0.76977246  0.54223218  0.65998540     0.36970
H2444       H  0.75089068  0.63505985  0.72701661     0.43090
H2445       H  0.72512275  0.63385632  0.77592891     0.39500
H2446       H  0.73622630  0.86634353  0.68782601     0.44420
H2447       H  0.74924229  0.58057207  0.65895650     0.43150
H2448       H  0.74258754  0.63398469  0.80190399     0.43280
H2449       H  0.73477401  0.90937052  0.82994191     0.43640
C2450       C  0.62042733  0.88441601  0.84322186     0.03190
C2451       C  0.63861496  0.91107129  0.82953023    -0.12960
C2452       C  0.63115133  0.91849422  0.80463489     0.00690
C2453       C  0.60222489  0.90244611  0.79399631    -0.11490
C2454       C  0.58256526  0.87658561  0.80780658     0.03180
C2455       C  0.59217502  0.86775241  0.83241205    -0.10910
H2456       H  0.66094980  0.92319010  0.83761829     0.08780
H2457       H  0.59721524  0.90652033  0.77440177     0.06310
H2458       H  0.57950885  0.84493963  0.84219341     0.06150
C2459       C  0.87150271  0.88188564  0.84358450     0.03190
C2460       C  0.90121941  0.86876258  0.83271082    -0.12960
C2461       C  0.90937381  0.87695967  0.80770062     0.00690
C2462       C  0.88764505  0.90035297  0.79394148    -0.11490
C2463       C  0.85743235  0.91336966  0.80468057     0.03180
C2464       C  0.85001058  0.90434004  0.82951602    -0.10910
H2465       H  0.91652789  0.84889251  0.84302760     0.08780
H2466       H  0.89241075  0.90481684  0.77431127     0.06310
H2467       H  0.82630286  0.91277632  0.83752510     0.06150
C2468       C  0.61706045  0.61781752  0.84350757     0.03190
C2469       C  0.58872198  0.63289424  0.83233043    -0.12960
C2470       C  0.58140157  0.62439013  0.80716798     0.00690
C2471       C  0.60266989  0.59927687  0.79356309    -0.11490
C2472       C  0.63146367  0.58428243  0.80487165     0.03180
C2473       C  0.63750948  0.59260839  0.82997795    -0.10910
H2474       H  0.57443785  0.65470386  0.84237983     0.08780
H2475       H  0.59883973  0.59487369  0.77377236     0.06310
H2476       H  0.66017319  0.58246906  0.83849668     0.06150
C2477       C  0.60437616  0.60931865  0.65525789     0.03190
C2478       C  0.57759480  0.62254365  0.67001872    -0.12960
C2479       C  0.57893839  0.62199685  0.69607486     0.00690
C2480       C  0.60615128  0.60473616  0.70756478    -0.11490
C2481       C  0.63317106  0.59137550  0.69311147     0.03180
C2482       C  0.63298174  0.59608432  0.66723710    -0.10910
H2483       H  0.55589022  0.63481245  0.66133480     0.08780
H2484       H  0.60735241  0.60402177  0.72771066     0.06310
H2485       H  0.65478315  0.58827805  0.65656100     0.06150
C2486       C  0.59379384  0.90245401  0.65453973     0.03190
C2487       C  0.57560598  0.87627972  0.66895933    -0.12960
C2488       C  0.58020356  0.87402868  0.69473008     0.00690
C2489       C  0.60726581  0.89320010  0.70555815    -0.11490
C2490       C  0.62915570  0.91478968  0.69066834     0.03180
C2491       C  0.62157875  0.92055420  0.66547366    -0.10910
H2492       H  0.55738209  0.85778843  0.66028925     0.08780
H2493       H  0.61211039  0.89000593  0.72526235     0.06310
H2494       H  0.63653175  0.94041083  0.65483218     0.06150
C2495       C  0.88824759  0.60743807  0.65569585     0.03190
C2496       C  0.91436180  0.62320052  0.66975001    -0.12960
C2497       C  0.91359363  0.62286260  0.69589691     0.00690
C2498       C  0.88727782  0.60434137  0.70805251    -0.11490
C2499       C  0.86055685  0.58945309  0.69416220     0.03180
C2500       C  0.86050525  0.59294932  0.66821927    -0.10910
H2501       H  0.93509511  0.63668282  0.66037593     0.08780
H2502       H  0.88636307  0.60399495  0.72821097     0.06310
H2503       H  0.83918732  0.58320374  0.65777901     0.06150
C2504       C  0.89660537  0.90237351  0.65537332     0.03190
C2505       C  0.91946224  0.88155723  0.66962928    -0.12960
C2506       C  0.91376201  0.87547791  0.69508669     0.00690
C2507       C  0.88435282  0.88977994  0.70606840    -0.11490
C2508       C  0.86062064  0.90928356  0.69163597     0.03180
C2509       C  0.86686273  0.91520021  0.66628170    -0.10910
H2510       H  0.94219942  0.87108173  0.66102329     0.08780
H2511       H  0.87961282  0.88512376  0.72568896     0.06310
H2512       H  0.84990472  0.93258393  0.65555786     0.06150
O2513       O  0.81392149  0.82431545  0.95165004    -0.75230
O2514       O  0.78280960  0.79099383  0.92339723    -0.54140
C2515       C  0.80639023  0.81426619  0.92909234     0.78500
O2516       O  0.80839676  0.67492102  0.03646320    -0.59830
O2517       O  0.77769713  0.71182167  0.06334618    -0.52860
C2518       C  0.79949602  0.68574401  0.05861757     0.70510
O2519       O  0.81326456  0.67619892  0.95185881    -0.74390
O2520       O  0.78304724  0.71015828  0.92411784    -0.54950
C2521       C  0.80585853  0.68576202  0.92949496     0.76510
O2522       O  0.80772849  0.82999147  0.03678234    -0.59530
O2523       O  0.77650914  0.79489214  0.06372164    -0.52650
C2524       C  0.79807630  0.82093235  0.05889056     0.73110
Zr2525     Zr  0.79372653  0.80979449  0.99400026     2.54710
O2526       O  0.85391653  0.80943184  0.99647980    -0.80100
O2527       O  0.79192692  0.88000432  0.99288599    -0.93520
Zr2528     Zr  0.79371025  0.69344813  0.99379739     2.64680
O2529       O  0.85402814  0.69384397  0.99455037    -0.98470
O2530       O  0.79213511  0.62317543  0.99289563    -0.80530
O2531       O  0.79494752  0.75126506  0.97046953    -0.83890
O2532       O  0.79390473  0.75199935  0.01735218    -2.18600
O2533       O  0.67546900  0.82754414  0.03586156    -0.67280
O2534       O  0.70530769  0.79167995  0.06269143    -0.51850
C2535       C  0.68303097  0.81690071  0.05807284     0.71490
O2536       O  0.67565153  0.67882687  0.94969531    -0.60190
O2537       O  0.70861599  0.71146025  0.92302193    -0.52170
C2538       C  0.68477251  0.68823642  0.92753892     0.73290
O2539       O  0.67549614  0.67616204  0.03417230    -0.71580
O2540       O  0.70694408  0.70970492  0.06224559    -0.50260
C2541       C  0.68419386  0.68529239  0.05656781     0.74680
O2542       O  0.67794556  0.82713153  0.95058721    -0.66910
O2543       O  0.70942401  0.79200686  0.92321636    -0.54110
C2544       C  0.68702155  0.81728325  0.92826366     0.73060
Zr2545     Zr  0.69392425  0.80991623  0.99318015     2.77540
O2546       O  0.63362257  0.80951179  0.99181120    -0.97660
O2547       O  0.69587458  0.88012757  0.99406711    -0.78480
Zr2548     Zr  0.69421235  0.69358195  0.99219787     2.70070
O2549       O  0.63400509  0.68980951  0.99263112    -0.79730
O2550       O  0.69952405  0.62359221  0.99018141    -0.98810
Zr2551     Zr  0.74535093  0.75144511  0.94710920     2.21500
Zr2552     Zr  0.74260419  0.75197009  0.03909849     2.11130
O2553       O  0.69265220  0.75182309  0.01603014    -2.47500
O2554       O  0.69430985  0.75164956  0.96921149    -0.79520
O2555       O  0.74324619  0.81088222  0.01720572    -0.71720
O2556       O  0.74473275  0.69247479  0.96918238    -2.32680
O2557       O  0.74445579  0.81069316  0.96996496    -2.28880
O2558       O  0.74315258  0.69258263  0.01665603    -0.73480
H2559       H  0.81237874  0.75225039  0.02871351     0.78520
H2560       H  0.74500956  0.67056298  0.95782955     0.79610
H2561       H  0.67343775  0.75173406  0.02683357     0.81830
H2562       H  0.74478220  0.83242241  0.95890572     0.79440
H2563       H  0.77579259  0.61648822  0.97984887     0.42470
H2564       H  0.71294705  0.61705745  0.00491833     0.41440
H2565       H  0.62658310  0.71705813  0.99347339     0.41120
H2566       H  0.62671652  0.79394496  0.00625089     0.39060
H2567       H  0.71498617  0.88644657  0.00486107     0.42190
H2568       H  0.78005422  0.88601507  0.97732702     0.36970
H2569       H  0.86049494  0.78379671  0.98967630     0.43090
H2570       H  0.85981677  0.71073437  0.00891058     0.39500
H2571       H  0.62705808  0.83626738  0.99636650     0.44420
H2572       H  0.81513731  0.88771230  0.98960233     0.43150
H2573       H  0.86027510  0.66753405  0.99975830     0.43280
H2574       H  0.67704729  0.61397357  0.99414754     0.43640
C2575       C  0.62525718  0.87937401  0.14929035     0.03190
C2576       C  0.64037235  0.91027810  0.16184781    -0.12960
C2577       C  0.63385375  0.91736155  0.18732268     0.00690
C2578       C  0.61158612  0.89362417  0.20000320    -0.11490
C2579       C  0.59664208  0.86264068  0.18738615     0.03180
C2580       C  0.60277281  0.85619445  0.16201757    -0.10910
H2581       H  0.65952717  0.92650627  0.15240784     0.08780
H2582       H  0.60731942  0.89784745  0.21981947     0.06310
H2583       H  0.59173276  0.83151485  0.15257417     0.06150
C2584       C  0.85630233  0.63566380  0.15098722     0.03190
C2585       C  0.87675207  0.66299027  0.16253160    -0.12960
C2586       C  0.88298844  0.66104607  0.18811681     0.00690
C2587       C  0.86922713  0.63111550  0.20219962    -0.11490
C2588       C  0.84930202  0.60313100  0.19053770     0.03180
C2589       C  0.84390820  0.60495331  0.16478105    -0.10910
H2590       H  0.88639434  0.68690248  0.15190992     0.08780
H2591       H  0.87303343  0.63045010  0.22214945     0.06310
H2592       H  0.82680210  0.58490507  0.15597985     0.06150
C2593       C  0.85531402  0.88060674  0.14977286     0.03190
C2594       C  0.84344431  0.91329988  0.16274691    -0.12960
C2595       C  0.84909400  0.91832318  0.18843136     0.00690
C2596       C  0.86852661  0.89132603  0.20089927    -0.11490
C2597       C  0.88103939  0.85890676  0.18795732     0.03180
C2598       C  0.87448437  0.85364181  0.16252328    -0.10910
H2599       H  0.82707200  0.93312021  0.15332260     0.08780
H2600       H  0.87270129  0.89455821  0.22075856     0.06310
H2601       H  0.88364987  0.82803956  0.15284598     0.06150
O2602       O  0.68745157  0.93560474  0.19623630    -0.75230
O2603       O  0.64600052  0.96581307  0.21820386    -0.54140
C2604       C  0.65690142  0.94172078  0.20148054     0.78500
O2605       O  0.79383583  0.93061109  0.29440619    -0.59830
O2606       O  0.83452901  0.96494687  0.27483546    -0.52860
C2607       C  0.82419972  0.93808750  0.28943002     0.70510
O2608       O  0.68515663  0.93072179  0.29273181    -0.74390
O2609       O  0.64499931  0.96474587  0.27254825    -0.54950
C2610       C  0.65499044  0.93820785  0.28734318     0.76510
O2611       O  0.79571917  0.93764756  0.19669978    -0.59530
O2612       O  0.83626681  0.96661216  0.21985571    -0.52650
C2613       C  0.82602029  0.94318141  0.20257590     0.73110
Zr2614     Zr  0.74119777  0.95592174  0.20982178     2.54710
O2615       O  0.74200931  0.88567001  0.21019173    -0.80100
O2616       O  0.74296742  0.95891184  0.16451166    -0.93520
Zr2617     Zr  0.73974989  0.95392051  0.28306452     2.64680
O2618       O  0.73840462  0.88360116  0.28338497    -0.98470
O2619       O  0.73909818  0.96026309  0.32833021    -0.80530
O2620       O  0.70803042  0.95384894  0.24607902    -0.83890
O2621       O  0.77289675  0.95409687  0.24659020    -2.18600
O2622       O  0.79550264  0.58713619  0.20032462    -0.67280
O2623       O  0.83644326  0.55516377  0.22088373    -0.51850
C2624       C  0.82598158  0.58003473  0.20507504     0.71490
O2625       O  0.68457923  0.59078661  0.29354678    -0.60190
O2626       O  0.64448935  0.55792198  0.27207698    -0.52170
C2627       C  0.65450713  0.58463377  0.28720324     0.73290
O2628       O  0.79229642  0.59213468  0.29560604    -0.71580
O2629       O  0.83354980  0.56050240  0.27409224    -0.50260
C2630       C  0.82264513  0.58697531  0.28932476     0.74680
O2631       O  0.68578283  0.58735381  0.19934905    -0.66910
O2632       O  0.64455484  0.55489245  0.21946921    -0.54110
C2633       C  0.65518358  0.58005574  0.20386557     0.73060
Zr2634     Zr  0.74046283  0.56765918  0.21196951     2.77540
O2635       O  0.73907568  0.63796326  0.21289990    -0.97660
O2636       O  0.74337273  0.56211158  0.16679614    -0.78480
Zr2637     Zr  0.73906032  0.56520425  0.28550166     2.70070
O2638       O  0.73838923  0.63410725  0.29502837    -0.79730
O2639       O  0.73741864  0.55013170  0.32964300    -0.98810
Zr2640     Zr  0.67455731  0.51061144  0.24652618     2.21500
Zr2641     Zr  0.80603410  0.51122090  0.24803011     2.11130
O2642       O  0.77179416  0.56768692  0.24885053    -2.47500
O2643       O  0.70762006  0.56748896  0.24845583    -0.79520
O2644       O  0.77423417  0.51198338  0.21064919    -0.71720
O2645       O  0.70550249  0.50951117  0.28451986    -2.32680
O2646       O  0.70763162  0.51163728  0.20957685    -2.28880
O2647       O  0.77343438  0.50982913  0.28543541    -0.73480
H2648       H  0.78659070  0.93120459  0.24604045     0.78520
H2649       H  0.69096501  0.50926693  0.29887979     0.79610
H2650       H  0.78489861  0.59096145  0.24892754     0.81830
H2651       H  0.69412860  0.51188800  0.19478186     0.79440
H2652       H  0.71542170  0.96315548  0.33293577     0.42470
H2653       H  0.76094015  0.54985258  0.33478466     0.41440
H2654       H  0.73897952  0.64647309  0.27852308     0.41120
H2655       H  0.75934998  0.64582207  0.22193778     0.39060
H2656       H  0.76196787  0.54408728  0.16335930     0.42190
H2657       H  0.72287153  0.97350947  0.15987293     0.36970
H2658       H  0.72926739  0.87887540  0.22531235     0.43090
H2659       H  0.75676966  0.87522562  0.27223617     0.39500
H2660       H  0.74324716  0.64543243  0.19543605     0.44420
H2661       H  0.73859413  0.93211806  0.15874361     0.43150
H2662       H  0.74571765  0.87659438  0.30030582     0.43280
H2663       H  0.72805404  0.57360059  0.33777592     0.43640
O2664       O  0.54268631  0.84532688  0.19528343    -0.75230
O2665       O  0.58376319  0.81065878  0.21389196    -0.54140
C2666       C  0.57303307  0.83797052  0.19996507     0.78500
O2667       O  0.93627951  0.83568675  0.29254484    -0.59830
O2668       O  0.89523044  0.80690779  0.26984965    -0.52860
C2669       C  0.90580763  0.83037097  0.28703659     0.70510
O2670       O  0.54463639  0.83646428  0.29127502    -0.74390
O2671       O  0.58553117  0.80749696  0.26803425    -0.54950
C2672       C  0.57503283  0.83081785  0.28534765     0.76510
O2673       O  0.93518311  0.84114265  0.19423634    -0.59530
O2674       O  0.89509365  0.80749767  0.21493180    -0.52650
C2675       C  0.90504020  0.83383131  0.19985384     0.73110
Zr2676     Zr  0.48946396  0.81878439  0.20485691     2.54710
O2677       O  0.48742031  0.88888817  0.20294147    -0.80100
O2678       O  0.99011920  0.81051249  0.15970637    -0.93520
Zr2679     Zr  0.49038541  0.81735777  0.27815581     2.64680
O2680       O  0.49101265  0.88763072  0.27723602    -0.98470
O2681       O  0.99021246  0.81538109  0.32350338    -0.80530
O2682       O  0.52228617  0.81964898  0.24123629    -0.83890
O2683       O  0.95757946  0.81906216  0.24194964    -2.18600
O2684       O  0.93664080  0.68303105  0.19231771    -0.67280
O2685       O  0.89620006  0.71363531  0.21533540    -0.51850
C2686       C  0.90652462  0.68804582  0.19932028     0.71490
O2687       O  0.54669258  0.68691465  0.28721096    -0.60190
O2688       O  0.58709768  0.71980703  0.26638008    -0.52170
C2689       C  0.57705237  0.69470250  0.28215281     0.73290
O2690       O  0.93664716  0.68497486  0.28833703    -0.71580
O2691       O  0.89531206  0.71772090  0.26875221    -0.50260
C2692       C  0.90606380  0.69243278  0.28415225     0.74680
O2693       O  0.54569318  0.68293881  0.19216699    -0.66910
O2694       O  0.58573987  0.71616500  0.21348347    -0.54110
C2695       C  0.57590547  0.68949470  0.19817440     0.73060
Zr2696     Zr  0.99098014  0.70723807  0.20243499     2.77540
O2697       O  0.99305418  0.63722774  0.19737068    -0.97660
O2698       O  0.99108329  0.71805431  0.15772384    -0.78480
Zr2699     Zr  0.99125324  0.70550318  0.27589547     2.70070
O2700       O  0.99248349  0.63524683  0.27513084    -0.79730
O2701       O  0.98955790  0.71095008  0.32110617    -0.98810
Zr2702     Zr  0.55601691  0.76319365  0.23991805     2.21500
Zr2703     Zr  0.92473004  0.76185503  0.24126844     2.11130
O2704       O  0.95892427  0.70526515  0.23953670    -2.47500
O2705       O  0.52335355  0.70594218  0.23897229    -0.79520
O2706       O  0.95632333  0.76259628  0.20334824    -0.71720
O2707       O  0.52399840  0.76169865  0.27747736    -2.32680
O2708       O  0.52398108  0.76354065  0.20255707    -2.28880
O2709       O  0.95749611  0.76113687  0.27809959    -0.73480
H2710       H  0.94381661  0.84189190  0.24264398     0.78520
H2711       H  0.53796446  0.76143351  0.29202459     0.79610
H2712       H  0.94574665  0.68203762  0.23958896     0.81830
H2713       H  0.53807246  0.76405488  0.18795548     0.79440
H2714       H  0.50897365  0.79830889  0.32777922     0.42470
H2715       H  0.97461401  0.73305676  0.32469524     0.41440
H2716       H  0.50038383  0.62832766  0.25814067     0.41120
H2717       H  0.97619773  0.62729540  0.20910268     0.39060
H2718       H  0.96835432  0.72705897  0.15405182     0.42190
H2719       H  0.51387216  0.80922296  0.15504866     0.36970
H2720       H  0.48722639  0.89759729  0.22059689     0.43090
H2721       H  0.96871917  0.89513107  0.27139554     0.39500
H2722       H  0.98390202  0.63185055  0.18059761     0.44420
H2723       H  0.48249102  0.83566951  0.15334143     0.43150
H2724       H  0.49138885  0.89577934  0.29499297     0.43280
H2725       H  0.97684431  0.68812599  0.32652179     0.43640
C2726       C  0.62762951  0.63634058  0.14972330     0.03190
C2727       C  0.63663127  0.60393596  0.16350716    -0.12960
C2728       C  0.63191450  0.60330154  0.18939231     0.00690
C2729       C  0.61302239  0.63244170  0.20103017    -0.11490
C2730       C  0.60024895  0.66283146  0.18694220     0.03180
C2731       C  0.60809499  0.66509963  0.16145656    -0.10910
H2732       H  0.64985382  0.58033533  0.15456951     0.08780
H2733       H  0.60883905  0.63193511  0.22095797     0.06310
H2734       H  0.59960085  0.68969128  0.15099748     0.06150
C2735       C  0.60687090  0.64034941  0.33591222     0.03190
C2736       C  0.59779568  0.67260887  0.32210229    -0.12960
C2737       C  0.60090035  0.67204942  0.29610452     0.00690
C2738       C  0.61815754  0.64191330  0.28419427    -0.11490
C2739       C  0.63072400  0.61157328  0.29825594     0.03180
C2740       C  0.62453638  0.61042391  0.32390723    -0.10910
H2741       H  0.58537392  0.69673206  0.33112350     0.08780
H2742       H  0.62121391  0.64165573  0.26414381     0.06310
H2743       H  0.63301296  0.58577794  0.33433494     0.06150
C2744       C  0.87232339  0.63861880  0.33848759     0.03190
C2745       C  0.85029248  0.61318956  0.32665092    -0.12960
C2746       C  0.84579636  0.61424896  0.30086352     0.00690
C2747       C  0.86157941  0.64283809  0.28686645    -0.11490
C2748       C  0.88269452  0.66945259  0.29872246     0.03180
C2749       C  0.88788037  0.66717033  0.32453294    -0.10910
H2750       H  0.83876096  0.59038639  0.33725593     0.08780
H2751       H  0.85847809  0.64339035  0.26684267     0.06310
H2752       H  0.90671745  0.68503274  0.33324882     0.06150
C2753       C  0.60566008  0.89210020  0.33819993     0.03190
C2754       C  0.62431316  0.91917337  0.32494238    -0.12960
C2755       C  0.63083451  0.91363404  0.29948924     0.00690
C2756       C  0.61783890  0.88168191  0.28668313    -0.11490
C2757       C  0.59816134  0.85521083  0.29936761     0.03180
C2758       C  0.59322491  0.85973416  0.32521057    -0.10910
H2759       H  0.63354021  0.94492092  0.33426169     0.08780
H2760       H  0.62183689  0.87842626  0.26676773     0.06310
H2761       H  0.57754168  0.83932732  0.33480641     0.06150
C2762       C  0.87736691  0.89523751  0.33930989     0.03190
C2763       C  0.89006347  0.86264302  0.32676185    -0.12960
C2764       C  0.88291910  0.85552509  0.30142096     0.00690
C2765       C  0.86141537  0.88062533  0.28905858    -0.11490
C2766       C  0.84821806  0.91309877  0.30168158     0.03200
C2767       C  0.85591779  0.92001743  0.32679109    -0.10910
H2768       H  0.90839289  0.84506810  0.33601929     0.08780
H2769       H  0.85640683  0.87619159  0.26940258     0.06310
H2770       H  0.84648064  0.94569157  0.33623666     0.06150
O2771       O  0.56177585  0.95126411  0.53762738    -0.75230
O2772       O  0.53049394  0.98896999  0.56382426    -0.54140
C2773       C  0.55203131  0.96238306  0.55950453     0.78500
O2774       O  0.56333162  0.59993264  0.45086649    -0.59830
O2775       O  0.53316363  0.56320044  0.42360094    -0.52860
C2776       C  0.55495520  0.58896853  0.42883090     0.70510
O2777       O  0.56671284  0.59904018  0.53487622    -0.74390
O2778       O  0.53242165  0.56990943  0.56274319    -0.54950
C2779       C  0.55742763  0.59072683  0.55711761     0.76510
O2780       O  0.56227021  0.94467786  0.45295030    -0.59530
O2781       O  0.53201543  0.97797176  0.42460255    -0.52650
C2782       C  0.55332672  0.95217850  0.43053765     0.73110
Zr2783     Zr  0.54661961  0.96785153  0.49479446     2.54710
O2784       O  0.60687370  0.97059646  0.49461107    -0.80100
O2785       O  0.54643282  0.89761121  0.49574463    -0.93520
Zr2786     Zr  0.54614358  0.58418443  0.49300611     2.64680
O2787       O  0.60640655  0.58769855  0.49241973    -0.98470
O2788       O  0.54179346  0.65433331  0.49364321    -0.80530
O2789       O  0.54710222  0.52752978  0.51717689    -0.83890
O2790       O  0.54767871  0.52446363  0.47040750    -2.18600
O2791       O  0.93042991  0.94646270  0.45219119    -0.67280
O2792       O  0.96129513  0.98045055  0.42470927    -0.51850
C2793       C  0.93897039  0.95534558  0.42974602     0.71490
O2794       O  0.92320928  0.59582356  0.53414322    -0.60190
O2795       O  0.95869979  0.56958045  0.56220333    -0.52170
C2796       C  0.93257785  0.58836475  0.55648672     0.73290
O2797       O  0.92878767  0.59760989  0.44926968    -0.71580
O2798       O  0.96296150  0.56362667  0.42330775    -0.50260
C2799       C  0.93866173  0.58670938  0.42734045     0.74680
O2800       O  0.93134547  0.95151147  0.53851686    -0.66910
O2801       O  0.96137357  0.99071456  0.56390169    -0.54110
C2802       C  0.94012715  0.96390570  0.56040435     0.73060
Zr2803     Zr  0.94636756  0.96756259  0.49478032     2.77540
O2804       O  0.88609117  0.97040431  0.49593516    -0.97660
O2805       O  0.94635010  0.89734313  0.49542226    -0.78480
Zr2806     Zr  0.94635820  0.58411777  0.49219848     2.70070
O2807       O  0.88648137  0.59128684  0.48960358    -0.79730
O2808       O  0.95228670  0.65401560  0.49392654    -0.98810
Zr2809     Zr  0.99617922  0.52954521  0.53890564     2.21500
Zr2810     Zr  0.99740392  0.52267035  0.44778933     2.11130
O2811       O  0.94633415  0.52408626  0.47009281    -2.47500
O2812       O  0.94562837  0.52759019  0.51673667    -0.79520
O2813       O  0.99678273  0.96535366  0.47135908    -0.71720
O2814       O  0.99582927  0.58757158  0.51618773    -2.32680
O2815       O  0.99631332  0.96872547  0.51798659    -2.28880
O2816       O  0.99673905  0.58322597  0.46896064    -0.73480
H2817       H  0.56666370  0.52364163  0.45936940     0.78520
H2818       H  0.99549920  0.60989368  0.52720560     0.79610
H2819       H  0.92767004  0.52325142  0.45892201     0.81830
H2820       H  0.99624637  0.94768945  0.52958003     0.79440
H2821       H  0.53512602  0.66122317  0.51092769     0.42470
H2822       H  0.96584791  0.66015592  0.47908315     0.41440
H2823       H  0.87790496  0.56464651  0.49104139     0.41120
H2824       H  0.87987578  0.98418982  0.48062688     0.39060
H2825       H  0.96668355  0.88973932  0.48616110     0.42190
H2826       H  0.53089721  0.89116139  0.50939456     0.36970
H2827       H  0.61220750  0.49330349  0.50526938     0.43090
H2828       H  0.61346323  0.56826202  0.47974353     0.39500
H2829       H  0.87897495  0.94342270  0.49284579     0.44420
H2830       H  0.56856865  0.89060969  0.50214835     0.43150
H2831       H  0.61156966  0.61293101  0.48491882     0.43280
H2832       H  0.92992060  0.66396286  0.49003224     0.43640
C2833       C  0.93669385  0.94363988  0.38385485    -0.20240
C2834       C  0.92261396  0.93656379  0.40749953    -0.06810
C2835       C  0.89327138  0.91388781  0.40846419     0.14060
C2836       C  0.87889804  0.90020073  0.38602299    -0.20300
C2837       C  0.89306006  0.90852604  0.36278082    -0.06820
C2838       C  0.92240424  0.93024236  0.36176393     0.14050
C2839       C  0.93856225  0.93993862  0.33720005    -0.23650
H2840       H  0.95894592  0.96078699  0.38228155     0.15330
H2841       H  0.85635761  0.88327571  0.38656220     0.15360
C2842       C  0.87649569  0.90445025  0.43273529    -0.23600
H2843       H  0.96134082  0.95747139  0.33974702     0.05580
H2844       H  0.92110471  0.95673599  0.32567337     0.08800
H2845       H  0.94561521  0.91298921  0.32704669     0.08800
H2846       H  0.86894567  0.93149092  0.44259283     0.08780
H2847       H  0.89357931  0.88763602  0.44455806     0.08780
H2848       H  0.85386291  0.88679596  0.42981331     0.05560
C2849       C  0.56105970  0.89576104  0.37024088    -0.20240
C2850       C  0.59476277  0.90071684  0.36433090    -0.06810
C2851       C  0.61598393  0.91698212  0.38272800     0.14060
C2852       C  0.60217791  0.93238311  0.40487181    -0.20300
C2853       C  0.56811900  0.92975385  0.40969266    -0.06820
C2854       C  0.54784289  0.90891335  0.39297086     0.14050
C2855       C  0.51227381  0.90021308  0.39922218    -0.23650
H2856       H  0.54450434  0.88279775  0.35669459     0.15330
H2857       H  0.61798573  0.94718725  0.41818582     0.15360
C2858       C  0.65314541  0.91799914  0.37993251    -0.23600
H2859       H  0.49979773  0.88361447  0.38410037     0.05580
H2860       H  0.99857054  0.92737818  0.40230514     0.08800
H2861       H  0.51109583  0.88305527  0.41649835     0.08800
H2862       H  0.66165663  0.94839844  0.37891562     0.08780
H2863       H  0.66212780  0.90178551  0.36326403     0.08780
H2864       H  0.66469197  0.90437291  0.39634896     0.05560
C2865       C  0.90431093  0.59189109  0.36157276    -0.20240
C2866       C  0.88722581  0.62684600  0.36223959    -0.06810
C2867       C  0.88630594  0.64909438  0.38447774     0.14060
C2868       C  0.90304568  0.63552082  0.40566931    -0.20300
C2869       C  0.92074479  0.60035733  0.40487078    -0.06820
C2870       C  0.92066638  0.57809617  0.38234194     0.14050
C2871       C  0.93616918  0.53866875  0.37981628    -0.23650
H2872       H  0.90499046  0.57514894  0.34431719     0.15330
H2873       H  0.90255749  0.65256817  0.42276273     0.15360
C2874       C  0.86730298  0.68647700  0.38591190    -0.23600
H2875       H  0.93063028  0.52447865  0.36161213     0.05580
H2876       H  0.92576517  0.52016608  0.39453704     0.08800
H2877       H  0.96354730  0.54049554  0.38111207     0.08800
H2878       H  0.84089368  0.68111093  0.38134389     0.08780
H2879       H  0.87777305  0.70728935  0.37249563     0.08780
H2880       H  0.86843726  0.69981240  0.40483715     0.05560
C2881       C  0.61625722  0.61960187  0.37949700    -0.20240
C2882       C  0.59451103  0.63499391  0.36176874    -0.06810
C2883       C  0.56029407  0.63862231  0.36787358     0.14060
C2884       C  0.54891543  0.62548326  0.39080546    -0.20300
C2885       C  0.57026000  0.60803355  0.40757486    -0.06820
C2886       C  0.60440318  0.60546285  0.40222699     0.14050
C2887       C  0.62783027  0.58558263  0.41962339    -0.23650
H2888       H  0.64235195  0.61668040  0.37494511     0.15330
H2889       H  0.52270026  0.62722894  0.39532007     0.15360
C2890       C  0.53473180  0.65351850  0.35005142    -0.23600
H2891       H  0.65351064  0.58475536  0.41207975     0.05580
H2892       H  0.61962919  0.55538194  0.42251996     0.08800
H2893       H  0.62826839  0.60122952  0.43780073     0.08800
H2894       H  0.53681728  0.63832358  0.33175443     0.08780
H2895       H  0.53764352  0.68505593  0.34798443     0.08780
H2896       H  0.50909929  0.64889642  0.35703223     0.05560
C2897       C  0.67676522  0.82103381  0.10402320    -0.20240
C2898       C  0.66601406  0.83396767  0.08058395    -0.06810
C2899       C  0.64032333  0.86209937  0.08002354     0.14060
C2900       C  0.62728131  0.87695098  0.10270092    -0.20300
C2901       C  0.63950910  0.86468703  0.12567037    -0.06820
C2902       C  0.66470886  0.83670829  0.12630753     0.14050
C2903       C  0.67922792  0.82340690  0.15061581    -0.23650
H2904       H  0.69514941  0.79839997  0.10526847     0.15330
H2905       H  0.60749510  0.89814171  0.10256117     0.15360
C2906       C  0.62600607  0.87619736  0.05596572    -0.23600
H2907       H  0.69931820  0.80183248  0.14765251     0.05580
H2908       H  0.65973311  0.80987226  0.16220919     0.08800
H2909       H  0.68991355  0.84843368  0.16092507     0.08800
H2910       H  0.61553612  0.85151106  0.04519971     0.08780
H2911       H  0.64550550  0.89065790  0.04484989     0.08780
H2912       H  0.60572689  0.89742202  0.05926560     0.05560
C2913       C  0.84731112  0.84494958  0.08235118    -0.20240
C2914       C  0.81273494  0.84133724  0.08063743    -0.06810
C2915       C  0.79265344  0.85506012  0.10059194     0.14060
C2916       C  0.80754796  0.86957645  0.12222460    -0.20300
C2917       C  0.84209373  0.87088778  0.12468312    -0.06820
C2918       C  0.86228929  0.85965464  0.10413446     0.14050
C2919       C  0.89948806  0.86307757  0.10445569    -0.23650
H2920       H  0.86279450  0.83510620  0.06693959     0.15330
H2921       H  0.79198564  0.87825415  0.13787677     0.15360
C2922       C  0.75540664  0.85406096  0.09946104    -0.23600
H2923       H  0.90775199  0.88093122  0.08858881     0.05580
H2924       H  0.91080687  0.83393754  0.10254111     0.08800
H2925       H  0.90885218  0.87706094  0.12172724     0.08800
H2926       H  0.74705190  0.82369661  0.09932363     0.08780
H2927       H  0.74665912  0.86873265  0.08246383     0.08780
H2928       H  0.74373295  0.86864603  0.11588214     0.05560
C2929       C  0.68852385  0.65136026  0.09611717    -0.20240
C2930       C  0.66787186  0.66642988  0.07786531    -0.06810
C2931       C  0.63334139  0.66788477  0.08216151     0.14060
C2932       C  0.62056483  0.65570032  0.10524022    -0.20300
C2933       C  0.64154590  0.64242060  0.12418769    -0.06820
C2934       C  0.67613445  0.63959423  0.11917220     0.14050
C2935       C  0.70095915  0.62662125  0.13819869    -0.23650
H2936       H  0.71498133  0.65017614  0.09255519     0.15330
H2937       H  0.59417741  0.65788118  0.10886106     0.15360
C2938       C  0.61024804  0.68431745  0.06310157    -0.23600
H2939       H  0.72676112  0.63028287  0.13149791     0.05580
H2940       H  0.69821959  0.59541378  0.14149660     0.08800
H2941       H  0.69806069  0.64353315  0.15581467     0.08800
H2942       H  0.61154668  0.66669006  0.04568075     0.08780
H2943       H  0.61738255  0.71453024  0.05903407     0.08780
H2944       H  0.58413832  0.68441874  0.06975708     0.05560
C2945       C  0.79528171  0.66829036  0.10284281    -0.20240
C2946       C  0.81450085  0.66779557  0.08088070    -0.06810
C2947       C  0.84770899  0.65442519  0.08189754     0.14060
C2948       C  0.86070294  0.64263956  0.10488779    -0.20300
C2949       C  0.84142747  0.64437686  0.12669718    -0.06820
C2950       C  0.80845636  0.65771917  0.12569322     0.14050
C2951       C  0.78764477  0.66317093  0.14896926    -0.23650
H2952       H  0.76989667  0.67848314  0.10239304     0.15330
H2953       H  0.88622366  0.63305681  0.10603309     0.15360
C2954       C  0.87006493  0.65428663  0.05935031    -0.23600
H2955       H  0.76379727  0.67783588  0.14507528     0.05580
H2956       H  0.80105277  0.68148770  0.16273246     0.08800
H2957       H  0.78203742  0.63479408  0.15726459     0.08800
H2958       H  0.87202786  0.68395375  0.05196787     0.08780
H2959       H  0.86005347  0.63449852  0.04480018     0.08780
H2960       H  0.89546604  0.64428221  0.06386516     0.05560
C2961       C  0.89288053  0.90285814  0.60870045    -0.20240
C2962       C  0.90673713  0.91745381  0.63087031    -0.06810
C2963       C  0.92940450  0.94809619  0.62986083     0.14060
C2964       C  0.93928053  0.96196620  0.60672940    -0.20300
C2965       C  0.92655329  0.94702450  0.58401396    -0.06820
C2966       C  0.90235454  0.91736392  0.58521654     0.14050
C2967       C  0.88617486  0.90102401  0.56217240    -0.23650
H2968       H  0.87465439  0.88000838  0.60981053     0.15330
H2969       H  0.95720394  0.98517539  0.60675010     0.15360
C2970       C  0.94252198  0.96719193  0.65334501    -0.23600
H2971       H  0.86738589  0.87881394  0.56676673     0.05580
H2972       H  0.90509952  0.88713986  0.54989976     0.08800
H2973       H  0.87340778  0.92442191  0.55204749     0.08800
H2974       H  0.95669298  0.94620482  0.66447817     0.08780
H2975       H  0.92161063  0.97834849  0.66488880     0.08780
H2976       H  0.95919703  0.99176477  0.64919076     0.05560
C2977       C  0.89701377  0.56687310  0.58990703    -0.20240
C2978       C  0.91121436  0.59832692  0.57778918    -0.06810
C2979       C  0.91283659  0.63446168  0.59012489     0.14060
C2980       C  0.90218894  0.63749829  0.61503579    -0.20300
C2981       C  0.89100104  0.60495694  0.62805537    -0.06820
C2982       C  0.88736343  0.56933128  0.61494314     0.14050
C2983       C  0.87654505  0.53267281  0.62746177    -0.23650
H2984       H  0.89640739  0.53907554  0.58030947     0.15330
H2985       H  0.90464346  0.66494706  0.62482888     0.15360
C2986       C  0.92763305  0.66947104  0.57809387    -0.23600
H2987       H  0.87937354  0.50702541  0.61497136     0.05580
H2988       H  0.84996648  0.53422457  0.63257304     0.08800
H2989       H  0.89172605  0.52775932  0.64425953     0.08800
H2990       H  0.90912034  0.69322673  0.57825924     0.08780
H2991       H  0.93517660  0.66387298  0.55846972     0.08780
H2992       H  0.94979713  0.67899641  0.58868380     0.05560
C2993       C  0.60662080  0.91990955  0.61014415    -0.20240
C2994       C  0.58268122  0.91280952  0.62883673    -0.06810
C2995       C  0.54874410  0.91969028  0.62323910     0.14060
C2996       C  0.54020360  0.93347638  0.59980661    -0.20300
C2997       C  0.56407832  0.94226645  0.58181957    -0.06820
C2998       C  0.59776223  0.93504831  0.58684340     0.14050
C2999       C  0.62439497  0.94516114  0.56832601    -0.23650
H3000       H  0.63253861  0.91466075  0.61400981     0.15330
H3001       H  0.51431171  0.93878514  0.59568718     0.15360
C3002       C  0.52091173  0.91576911  0.64193924    -0.23600
H3003       H  0.64952776  0.93909691  0.57564195     0.05580
H3004       H  0.62298165  0.47637454  0.56402825     0.08800
H3005       H  0.62113203  0.92792765  0.55091731     0.08800
H3006       H  0.52713718  0.93078573  0.65971229     0.08780
H3007       H  0.51481620  0.88506059  0.64495603     0.08780
H3008       H  0.49782552  0.92894945  0.63500680     0.05560
C3009       C  0.59776375  0.57320198  0.58819199    -0.20240
C3010       C  0.57802423  0.60224219  0.57823316    -0.06810
C3011       C  0.57184876  0.63627351  0.59206743     0.14060
C3012       C  0.58470829  0.63979521  0.61622854    -0.20300
C3013       C  0.60120888  0.60869259  0.62754657    -0.06820
C3014       C  0.60881914  0.57527941  0.61283335     0.14050
C3015       C  0.62549909  0.53987789  0.62310140    -0.23650
H3016       H  0.60178983  0.54693220  0.57730907     0.15330
H3017       H  0.57943618  0.66577494  0.62705535     0.15360
C3018       C  0.54979102  0.66744669  0.58201648    -0.23600
H3019       H  0.62469574  0.51508644  0.60974281     0.05580
H3020       H  0.61283409  0.53056479  0.64039819     0.08800
H3021       H  0.65205905  0.54567073  0.62657990     0.08800
H3022       H  0.02467613  0.65564664  0.57837096     0.08780
H3023       H  0.56039463  0.67838274  0.56435849     0.08780
H3024       H  0.54720222  0.69211467  0.59535888     0.05560
C3025       C  0.63874348  0.64769360  0.90994255    -0.20240
C3026       C  0.66659682  0.67145247  0.90569001    -0.06810
C3027       C  0.67624486  0.67857470  0.88055238     0.14060
C3028       C  0.65846200  0.66148220  0.86109499    -0.20300
C3029       C  0.63153978  0.63725167  0.86551514    -0.06820
C3030       C  0.62116548  0.63049648  0.89010057     0.14050
C3031       C  0.59210128  0.60464762  0.89529795    -0.23650
H3032       H  0.63075386  0.64215640  0.92884873     0.15330
H3033       H  0.66600531  0.66644319  0.84197449     0.15360
C3034       C  0.70533040  0.70351354  0.87337957    -0.23600
H3035       H  0.58731813  0.60210267  0.91560142     0.05580
H3036       H  0.59702046  0.57531182  0.88748971     0.08800
H3037       H  0.56950658  0.61656795  0.88654045     0.08800
H3038       H  0.72843851  0.69153206  0.88122085     0.08780
H3039       H  0.70119056  0.73356995  0.88012059     0.08780
H3040       H  0.70895999  0.70476896  0.85287659     0.05560
C3041       C  0.85043248  0.82552822  0.86637492    -0.20240
C3042       C  0.85890370  0.86468723  0.86701635    -0.06810
C3043       C  0.85218172  0.88679676  0.88880975     0.14060
C3044       C  0.83608680  0.86940449  0.90915662    -0.20300
C3045       C  0.82591715  0.83057501  0.90801552    -0.06820
C3046       C  0.83397428  0.80821531  0.88638688     0.14050
C3047       C  0.82597848  0.76584096  0.88420688    -0.23650
H3048       H  0.85571144  0.80865999  0.84962306     0.15330
H3049       H  0.83045088  0.88656891  0.92569877     0.15360
C3050       C  0.86212640  0.92859858  0.89060854    -0.23600
H3051       H  0.83659790  0.75249942  0.86697321     0.05580
H3052       H  0.79877839  0.76153222  0.88345909     0.08800
H3053       H  0.83657367  0.75050232  0.90031917     0.08800
H3054       H  0.84909218  0.94547700  0.87624439     0.08780
H3055       H  0.88929090  0.93116269  0.88770709     0.08780
H3056       H  0.85586994  0.94143412  0.90913637     0.05560
C3057       C  0.66893516  0.85438140  0.86316453    -0.20240
C3058       C  0.63618678  0.86769598  0.86570974    -0.06810
C3059       C  0.62054664  0.86593477  0.88928123     0.14060
C3060       C  0.63774983  0.84971903  0.90941267    -0.20300
C3061       C  0.67044023  0.83576934  0.90669752    -0.06820
C3062       C  0.68649816  0.83932922  0.88321643     0.14050
C3063       C  0.72255786  0.82903136  0.87899837    -0.23650
H3064       H  0.68107959  0.85599020  0.84513758     0.15330
H3065       H  0.62545277  0.84771301  0.92734250     0.15360
C3066       C  0.58634646  0.88229933  0.89353788    -0.23600
H3067       H  0.73143370  0.83773848  0.86028354     0.05580
H3068       H  0.72633067  0.79741472  0.88010561     0.08800
H3069       H  0.73818373  0.84419297  0.89300724     0.08800
H3070       H  0.56791883  0.86603630  0.88235302     0.08780
H3071       H  0.58588684  0.91313925  0.88821334     0.08780
H3072       H  0.57871317  0.88056013  0.91340017     0.05560
C3073       C  0.80980331  0.67150551  0.88428053    -0.20240
C3074       C  0.82411070  0.66780868  0.90795242    -0.06810
C3075       C  0.85542434  0.64911380  0.90972449     0.14060
C3076       C  0.87060410  0.63384031  0.88797453    -0.20300
C3077       C  0.85556850  0.63722663  0.86464427    -0.06820
C3078       C  0.82523438  0.65732777  0.86272401     0.14050
C3079       C  0.80931181  0.66516531  0.83787468    -0.23650
H3080       H  0.78631161  0.68617519  0.88237649     0.15330
H3081       H  0.89417701  0.61895266  0.88915185     0.15360
C3082       C  0.87348732  0.64570427  0.93408310    -0.23600
H3083       H  0.78727421  0.68425812  0.83986221     0.05580
H3084       H  0.80079537  0.63793772  0.82894661     0.08800
H3085       H  0.82733051  0.67970371  0.82545955     0.08800
H3086       H  0.85895810  0.62775410  0.94713236     0.08780
H3087       H  0.87758061  0.67486554  0.94236517     0.08780
H3088       H  0.89811632  0.63176056  0.93158456     0.05560
loop_ 
_geom_bond_atom_site_label_1 
_geom_bond_atom_site_label_2 
_geom_bond_distance 
_geom_bond_site_symmetry_2 
_ccdc_geom_bond_type 
O1          Zr13   2.413       .  S
O1            C3   1.284       .  A
O2        Zr1583   2.474       .  S
O2            C3   1.295       .  A
C3           C65   1.486       .  S
O4          Zr16   2.418       .  S
O4            C6   1.282       .  A
O5          Zr40   2.483       .  S
O5            C6   1.298       .  A
C6          C190   1.480       .  S
O7          Zr16   2.415       .  S
O7            C9   1.283       .  A
O8        Zr1583   2.462       .  S
O8            C9   1.293       .  A
C9          C181   1.473       .  S
O10         Zr13   2.406       .  S
O10          C12   1.282       .  A
O11         Zr40   2.490       .  S
O11          C12   1.299       .  A
C12         C145   1.488       .  S
Zr13         O14   2.434       .  S
Zr13         O15   2.436       .  S
Zr13         O19   2.363       .  S
Zr13         O20   2.366       .  S
Zr13         O43   2.366       .  S
Zr13       O1589   2.363       .  S
O14          H57   0.990       .  S
O15          H56   0.990       .  S
O15          H60   0.990       .  S
Zr16         O17   2.436       .  S
Zr16         O18   2.436       .  S
Zr16         O20   2.363       .  S
Zr16         O19   2.365       .  S
Zr16         O46   2.369       .  S
Zr16       O1588   2.366       .  S
O17          H58   0.990       .  S
O17          H61   0.990       .  S
O18          H51   0.990       .  S
O19       Zr1583   2.389       .  S
O20         Zr40   2.397       .  S
O20          H47   0.965       .  S
O21         Zr33   2.415       .  S
O21          C23   1.284       .  A
O22       Zr1584   2.484   1_455  S
O22          C23   1.298       .  A
C23         C138   1.490       .  S
O24         Zr36   2.409       .  S
O24          C26   1.282       .  A
O25         Zr39   2.461   1_455  S
O25          C26   1.293       .  A
C26         C163   1.469       .  S
O27         Zr36   2.413       .  S
O27          C29   1.282       .  A
O28       Zr1584   2.482   1_455  S
O28          C29   1.298       .  A
C29         C172   1.478       .  S
O30         Zr33   2.416       .  S
O30          C32   1.284       .  A
O31         Zr39   2.472   1_455  S
O31          C32   1.295       .  A
C32         C154   1.485       .  S
Zr33         O34   2.438       .  S
Zr33         O35   2.435       .  S
Zr33         O41   2.365       .  S
Zr33         O42   2.364       .  S
Zr33         O45   2.366   1_455  S
Zr33       O1587   2.368   1_455  S
O34          H54   0.990       .  S
O34          H59   0.990       .  S
O35          H55   0.990       .  S
Zr36         O37   2.434       .  S
Zr36         O38   2.435       .  S
Zr36         O42   2.364       .  S
Zr36         O41   2.362       .  S
Zr36         O44   2.364   1_455  S
Zr36       O1590   2.368   1_455  S
O37          H53   0.990       .  S
O38          H52   0.990       .  S
O38          H62   0.990       .  S
Zr39       O1546   2.474       .  S
Zr39       O1552   2.462       .  S
Zr39         O42   2.391   1_655  S
Zr39         O44   2.402       .  S
Zr39         O45   2.400       .  S
Zr39       O1563   2.389       .  S
Zr40       O1566   2.484       .  S
Zr40       O1572   2.482       .  S
Zr40         O43   2.404       .  S
Zr40         O46   2.399       .  S
Zr40       O1585   2.398       .  S
O41       Zr1584   2.398   1_455  S
O41          H49   0.965       .  S
O43       Zr1577   2.368       .  S
O44       Zr1560   2.366       .  S
O44          H48   0.966       .  S
O45       Zr1557   2.363       .  S
O45          H50   0.966       .  S
O46       Zr1580   2.368       .  S
C63         C761   1.479       .  S
C63          C64   1.399       .  A
C63          C68   1.391       .  A
C64          C65   1.413       .  A
C64          H69   1.084       .  S
C65          C66   1.414       .  A
C66          C67   1.415       .  A
C66          H70   1.082       .  S
C67          C80   1.479       .  S
C67          C68   1.396       .  A
C68          H71   1.085       .  S
O72         Zr84   2.452       .  S
O72          C74   1.290       .  A
O73        Zr882   2.413   1_545  S
O73          C74   1.283       .  A
C74         C183   1.471       .  S
O75         Zr87   2.466       .  S
O75          C77   1.295       .  A
O76        Zr883   2.404       .  S
O76          C77   1.280       .  A
C77         C156   1.480       .  S
O78         Zr87   2.463       .  S
O78          C80   1.295       .  A
O79        Zr882   2.409   1_545  S
O79          C80   1.280       .  A
O81         Zr84   2.457       .  S
O81          C83   1.291       .  A
O82        Zr883   2.405       .  S
O82          C83   1.282       .  A
C83         C165   1.471       .  S
Zr84         O85   2.434       .  S
Zr84         O86   2.436       .  S
Zr84         O90   2.376       .  S
Zr84         O91   2.375       .  S
Zr84        O114   2.377       .  S
Zr84        O888   2.378   1_545  S
O85         H128   0.990       .  S
O86         H127   0.990       .  S
O86         H131   0.990       .  S
Zr87         O88   2.435       .  S
Zr87         O89   2.435       .  S
Zr87         O91   2.368       .  S
Zr87         O90   2.370       .  S
Zr87        O887   2.369   1_545  S
Zr87        O889   2.371   1_545  S
O88         H129   0.990       .  S
O88         H132   0.990       .  S
O89         H122   0.990       .  S
O90        Zr882   2.381   1_545  S
O91        Zr883   2.383       .  S
O91         H118   0.966       .  S
O92        Zr104   2.491       .  S
O92          C94   1.297       .  A
O93        Zr111   2.396       .  S
O93          C94   1.279       .  A
C94         C174   1.477       .  S
O95        Zr107   2.456       .  S
O95          C97   1.292       .  A
O96        Zr110   2.425       .  S
O96          C97   1.284       .  A
C97         C147   1.484       .  S
O98        Zr107   2.453       .  S
O98         C100   1.292       .  A
O99        Zr111   2.419       .  S
O99         C100   1.282       .  A
C100        C136   1.481       .  S
O101       Zr104   2.482       .  S
O101        C103   1.296       .  A
O102       Zr110   2.398       .  S
O102        C103   1.280       .  A
C103        C192   1.475       .  S
Zr104       O105   2.435       .  S
Zr104       O106   2.434       .  S
Zr104       O112   2.380       .  S
Zr104       O113   2.384       .  S
Zr104       O116   2.382       .  S
Zr104       O886   2.379       .  S
O105        H125   0.990       .  S
O105        H130   0.990       .  S
O106        H126   0.990       .  S
Zr107       O108   2.434       .  S
Zr107       O109   2.436       .  S
Zr107       O113   2.372       .  S
Zr107       O112   2.371       .  S
Zr107       O117   2.372       .  S
Zr107       O115   2.370       .  S
O108        H124   0.990       .  S
O109        H123   0.990       .  S
O109        H133   0.990       .  S
Zr110       O845   2.413       .  S
Zr110       O851   2.409       .  S
Zr110       O113   2.382       .  S
Zr110       O115   2.382       .  S
Zr110       O116   2.391       .  S
Zr110       O862   2.381       .  S
Zr111       O848   2.404       .  S
Zr111       O854   2.405       .  S
Zr111       O112   2.386       .  S
Zr111       O117   2.381       .  S
Zr111       O863   2.383       .  S
Zr111       O886   2.385       .  S
O112        H120   0.966       .  S
O114       Zr876   2.379   1_545  S
O114       Zr883   2.385       .  S
O115       Zr859   2.369       .  S
O115        H119   0.966       .  S
O116       Zr856   2.378       .  S
O116        H893   0.966       .  S
O117       Zr859   2.371       .  S
H121        O888   0.966       .  S
C134        C742   1.492       .  S
C134        C135   1.396       .  A
C134        C139   1.403       .  A
C135        C136   1.399       .  A
C135        H140   1.085       .  S
C136        C137   1.414       .  A
C137        C138   1.414       .  A
C137        H141   1.084       .  S
C138        C139   1.417       .  A
C139        H142   1.083       .  S
C143        C726   1.488       .  S
C143        C144   1.403       .  A
C143        C148   1.397       .  A
C144        C145   1.414       .  A
C144        H149   1.085       .  S
C145        C146   1.412       .  A
C146        C147   1.416       .  A
C146        H150   1.084       .  S
C147        C148   1.405       .  A
C148        H151   1.084       .  S
C152        C713   1.475       .  S
C152        C153   1.399       .  A
C152        C157   1.394       .  A
C153        C154   1.411       .  A
C153        H158   1.085       .  S
C154        C155   1.413       .  A
C155        C156   1.416       .  A
C155        H159   1.083       .  S
C156        C157   1.397       .  A
C157        H160   1.085       .  S
C161        C697   1.494       .  S
C161        C162   1.408       .  A
C161        C166   1.404       .  A
C162        C163   1.400       .  A
C162        H167   1.084       .  S
C163        C164   1.400       .  A
C164        C165   1.408       .  A
C164        H168   1.083       .  S
C165        C166   1.401       .  A
C166        H169   1.079       .  S
C170        C678   1.502       .  S
C170        C171   1.406       .  A
C170        C175   1.412       .  A
C171        C172   1.400       .  A
C171        H176   1.079       .  S
C172        C173   1.404       .  A
C173        C174   1.411       .  A
C173        H177   1.084       .  S
C174        C175   1.405       .  A
C175        H178   1.083       .  S
C179        C665   1.488       .  S
C179        C180   1.406       .  A
C179        C184   1.401       .  A
C180        C181   1.404       .  A
C180        H185   1.084       .  S
C181        C182   1.405       .  A
C182        C183   1.409       .  A
C182        H186   1.083       .  S
C183        C184   1.400       .  A
C184        H187   1.081       .  S
C188        C646   1.479       .  S
C188        C189   1.407       .  A
C188        C193   1.401       .  A
C189        C190   1.404       .  A
C189        H194   1.084       .  S
C190        C191   1.408       .  A
C191        C192   1.413       .  A
C191        H195   1.084       .  S
C192        C193   1.401       .  A
C193        H196   1.084       .  S
O197       Zr209   2.470       .  S
O197        C199   1.293       .  A
O198       Zr235   2.413       .  S
O198        C199   1.284       .  A
C199        C729   1.494       .  S
O200       Zr212   2.463   1_554  S
O200        C202   1.290       .  A
O201       Zr236   2.388       .  S
O201        C202   1.281       .  A
C202        C630   1.487       .  S
O203       Zr212   2.446       .  S
O203        C205   1.287       .  A
O204       Zr235   2.408       .  S
O204        C205   1.286       .  A
C205        C758   1.494       .  S
O206       Zr209   2.460   1_554  S
O206        C208   1.291       .  A
O207       Zr236   2.408       .  S
O207        C208   1.283       .  A
C208        C598   1.482       .  S
Zr209       O210   2.434       .  S
Zr209       O211   2.435       .  S
Zr209       O215   2.372       .  S
Zr209       O216   2.379   1_556  S
Zr209       O239   2.382   1_556  S
Zr209       O241   2.377       .  S
O210        H253   0.990       .  S
O211        H252   0.990       .  S
O211        H256   0.990       .  S
Zr212       O213   2.435       .  S
Zr212       O214   2.435       .  S
Zr212       O216   2.374   1_556  S
Zr212       O215   2.379       .  S
Zr212       O240   2.384       .  S
Zr212       O242   2.375   1_556  S
O213        H254   0.990   1_556  S
O213        H257   0.990       .  S
O214        H247   0.990       .  S
O215       Zr235   2.368       .  S
O216       Zr236   2.371       .  S
O216        H243   0.966       .  S
O217       Zr229   2.472   1_554  S
O217        C219   1.292       .  A
O218       Zr236   2.383       .  S
O218        C219   1.280       .  A
C219        C582   1.499       .  S
O220       Zr232   2.452       .  S
O220        C222   1.290       .  A
O221       Zr235   2.401       .  S
O221        C222   1.280       .  A
C222        C710   1.497       .  S
O223       Zr232   2.457   1_554  S
O223        C225   1.289       .  A
O224       Zr236   2.409       .  S
O224        C225   1.284       .  A
C225        C614   1.478       .  S
O226       Zr229   2.461       .  S
O226        C228   1.292       .  A
O227       Zr235   2.406       .  S
O227        C228   1.282       .  A
C228        C745   1.493       .  S
Zr229       O230   2.435       .  S
Zr229       O231   2.433       .  S
Zr229       O237   2.373   1_556  S
Zr229       O238   2.377       .  S
Zr229       O241   2.384       .  S
Zr229       O239   2.378   1_556  S
O230        H250   0.990   1_556  S
O230        H255   0.990       .  S
O231        H251   0.990   1_556  S
Zr232       O233   2.434       .  S
Zr232       O234   2.434       .  S
Zr232       O238   2.376       .  S
Zr232       O237   2.373   1_556  S
Zr232       O242   2.378   1_556  S
Zr232       O240   2.378       .  S
O233        H249   0.990       .  S
O234        H248   0.990   1_556  S
O234        H258   0.990       .  S
Zr235       O238   2.371       .  S
Zr235       O240   2.378       .  S
Zr235       O241   2.375       .  S
Zr236       O237   2.372       .  S
Zr236       O239   2.371       .  S
Zr236       O242   2.368       .  S
O237        H245   0.966       .  S
O240        H244   0.966       .  S
O241        H246   0.966       .  S
C259        C585   1.472       .  S
C259        C260   1.399       .  A
C259        C264   1.396       .  A
C260        C261   1.409       .  A
C260        H265   1.085       .  S
C261        C288   1.465       .  S
C261        C262   1.400       .  A
C262        C263   1.400       .  A
C262        H266   1.084       .  S
C263        C350   1.452       .  S
C263        C264   1.397       .  A
C264        H267   1.085       .  S
C268        C633   1.474       .  S
C268        C269   1.397       .  A
C268        C273   1.397       .  A
C269        C270   1.400       .  A
C269        H274   1.084       .  S
C270        C370   1.460       .  S
C270        C271   1.406       .  A
C271        C272   1.403       .  A
C271        H275   1.083       .  S
C272        C308   1.466       .  S
C272        C273   1.403       .  A
C273        H276   1.085       .  S
C277        C601   1.486       .  S
C277        C278   1.402       .  A
C277        C282   1.401       .  A
C278        C279   1.407       .  A
C278        H283   1.085       .  S
C279        C297   1.468       .  S
C279        C280   1.400       .  A
C280        C281   1.403       .  A
C280        H284   1.084       .  S
C281        C359   1.457       .  S
C281        C282   1.401       .  A
C282        H285   1.084       .  S
O286       Zr298   2.396       .  S
O286        C288   1.280       .  A
O287      Zr1096   2.450       .  S
O287        C288   1.291       .  A
O289       Zr301   2.411       .  S
O289        C291   1.281       .  A
O290      Zr1097   2.459       .  S
O290        C291   1.294       .  A
C291        C450   1.464       .  S
O292       Zr301   2.403       .  S
O292        C294   1.280       .  A
O293      Zr1096   2.441       .  S
O293        C294   1.290       .  A
C294        C439   1.454       .  S
O295       Zr298   2.388       .  S
O295        C297   1.279       .  A
O296      Zr1097   2.462       .  S
O296        C297   1.293       .  A
Zr298       O299   2.434       .  S
Zr298       O300   2.437       .  S
Zr298       O304   2.358       .  S
Zr298       O305   2.360       .  S
Zr298      O1100   2.358       .  S
Zr298      O1102   2.356       .  S
O299        H342   0.990       .  S
O300        H341   0.990       .  S
O300        H345   0.990       .  S
Zr301       O302   2.437       .  S
Zr301       O303   2.436       .  S
Zr301       O305   2.365       .  S
Zr301       O304   2.368       .  S
Zr301      O1101   2.368       .  S
Zr301      O1103   2.371       .  S
O302        H343   0.990       .  S
O302        H346   0.990       .  S
O303        H336   0.990       .  S
O304      Zr1096   2.383       .  S
O305      Zr1097   2.391       .  S
O305        H332   0.966       .  S
O306       Zr318   2.405       .  S
O306        C308   1.282       .  A
O307       Zr325   2.450       .  S
O307        C308   1.291       .  A
O309       Zr321   2.403       .  S
O309        C311   1.280       .  A
O310       Zr324   2.438       .  S
O310        C311   1.289       .  A
C311        C423   1.455       .  S
O312       Zr321   2.405       .  S
O312        C314   1.280       .  A
O313       Zr325   2.461       .  S
O313        C314   1.294       .  A
C314        C430   1.463       .  S
O315       Zr318   2.412       .  S
O315        C317   1.284       .  A
O316       Zr324   2.452       .  S
O316        C317   1.291       .  A
C317        C412   1.469       .  S
Zr318       O319   2.436       .  S
Zr318       O320   2.432       .  S
Zr318       O326   2.355       .  S
Zr318       O327   2.359       .  S
Zr318       O330   2.354       .  S
Zr318       O328   2.359       .  S
O319        H339   0.990       .  S
O319        H344   0.990       .  S
O320        H340   0.990       .  S
Zr321       O322   2.433       .  S
Zr321       O323   2.435       .  S
Zr321       O327   2.367       .  S
Zr321       O326   2.366       .  S
Zr321       O331   2.365       .  S
Zr321       O329   2.359       .  S
O322        H338   0.990       .  S
O323        H337   0.990       .  S
O323        H347   0.990       .  S
Zr324      O1059   2.450   1_545  S
Zr324      O1065   2.441   1_545  S
Zr324       O327   2.383       .  S
Zr324       O329   2.398       .  S
Zr324       O330   2.385       .  S
Zr324      O1076   2.383   1_545  S
Zr325      O1062   2.459   1_545  S
Zr325      O1068   2.462   1_545  S
Zr325       O326   2.392       .  S
Zr325       O328   2.389       .  S
Zr325       O331   2.395       .  S
Zr325      O1077   2.391   1_545  S
O326        H334   0.965       .  S
O328      Zr1070   2.358   1_545  S
O329      Zr1073   2.368   1_545  S
O329        H333   0.966       .  S
O330      Zr1070   2.356   1_545  S
O330        H335   0.966       .  S
O331      Zr1073   2.371   1_545  S
O348       Zr360   2.394   1_455  S
O348        C350   1.278       .  A
O349       Zr386   2.443       .  S
O349        C350   1.291       .  A
O351      Zr1907   2.393       .  S
O351        C353   1.279       .  A
O352       Zr387   2.471       .  S
O352        C353   1.295       .  A
C353        C448   1.475       .  S
O354       Zr363   2.395   1_455  S
O354        C356   1.280       .  A
O355       Zr386   2.451       .  S
O355        C356   1.291       .  A
C356        C441   1.464       .  S
O357      Zr1904   2.397       .  S
O357        C359   1.278       .  A
O358       Zr387   2.452       .  S
O358        C359   1.292       .  A
Zr360      O1901   2.397       .  S
Zr360       O361   2.434       .  S
Zr360      O1906   2.436       .  S
Zr360       O366   2.366   1_655  S
Zr360       O392   2.366   1_655  S
Zr360      O1911   2.364       .  S
Zr360      O1934   2.364       .  S
O361        H404   0.990       .  S
O362      Zr1904   2.436       .  S
O362       H1947   0.990       .  S
O362       H1951   0.990       .  S
Zr363      O1895   2.393       .  S
Zr363       O364   2.436       .  S
Zr363      O1909   2.436       .  S
Zr363       O366   2.360   1_655  S
Zr363       O391   2.355   1_655  S
Zr363      O1911   2.359       .  S
Zr363      O1937   2.359       .  S
O364        H408   0.990       .  S
O364       H1949   0.990       .  S
O365      Zr1907   2.436       .  S
O365       H1942   0.990       .  S
O366       Zr386   2.381       .  S
O367       Zr387   2.386       .  S
O367      Zr1904   2.364       .  S
O367      Zr1907   2.359       .  S
O367        H394   0.966       .  S
O368       Zr380   2.411       .  S
O368        C370   1.281       .  A
O369       Zr387   2.451       .  S
O369        C370   1.292       .  A
O371      Zr1927   2.411   1_455  S
O371        C373   1.284       .  A
O372       Zr386   2.435       .  S
O372        C373   1.288       .  A
C373        C421   1.458       .  S
O374       Zr383   2.411       .  S
O374        C376   1.282       .  A
O375       Zr387   2.446       .  S
O375        C376   1.290       .  A
C376        C432   1.466       .  S
O377      Zr1924   2.419   1_455  S
O377        C379   1.283       .  A
O378       Zr386   2.451       .  S
O378        C379   1.292       .  A
C379        C414   1.468       .  S
Zr380      O1921   2.419       .  S
Zr380       O381   2.438       .  S
Zr380       O382   2.435       .  S
Zr380       O388   2.371       .  S
Zr380       O390   2.371       .  S
Zr380      O1933   2.364       .  S
Zr380      O1936   2.364       .  S
O381        H401   0.990       .  S
O381        H406   0.990       .  S
O382        H402   0.990       .  S
Zr383      O1915   2.411       .  S
Zr383       O384   2.434       .  S
Zr383       O385   2.432       .  S
Zr383       O388   2.354       .  S
Zr383       O393   2.359       .  S
Zr383      O1933   2.362       .  S
Zr383      O1935   2.356       .  S
O384       H1944   0.990       .  S
O385        H399   0.990       .  S
O385        H409   0.990       .  S
Zr386       O389   2.384       .  S
Zr386       O391   2.390       .  S
Zr386       O392   2.393       .  S
Zr387       O388   2.396       .  S
Zr387       O390   2.396       .  S
Zr387       O393   2.385       .  S
O388        H396   0.965       .  S
O389      Zr1924   2.364   1_455  S
O389      Zr1927   2.362   1_455  S
O390      Zr1904   2.364       .  S
O391      Zr1927   2.356   1_455  S
O391        H395   0.966       .  S
O392      Zr1924   2.364   1_455  S
O392        H397   0.966       .  S
O393      Zr1907   2.359       .  S
H398       O1909   0.990   1_455  S
H400       O1928   0.990   1_455  S
H403       O1906   0.990   1_455  S
H405       O1908   0.990       .  S
H407       O1906   0.990       .  S
C410        C617   1.496       .  S
C410        C411   1.402       .  A
C410        C415   1.408       .  A
C411        C412   1.402       .  A
C411        H416   1.080       .  S
C412        C413   1.401       .  A
C413        C414   1.405       .  A
C413        H417   1.082       .  S
C414        C415   1.406       .  A
C415        H418   1.084       .  S
C419        C566   1.487       .  S
C419        C420   1.400       .  A
C419        C424   1.403       .  A
C420        C421   1.400       .  A
C420        H425   1.080       .  S
C421        C422   1.398       .  A
C422        C423   1.400       .  A
C422        H426   1.083       .  S
C423        C424   1.399       .  A
C424        H427   1.084       .  S
C428        C550   1.476       .  S
C428        C429   1.401       .  A
C428        C433   1.398       .  A
C429        C430   1.398       .  A
C429        H434   1.085       .  S
C430        C431   1.404       .  A
C431        C432   1.404       .  A
C431        H435   1.083       .  S
C432        C433   1.406       .  A
C433        H436   1.085       .  S
C437        C534   1.493       .  S
C437        C438   1.404       .  A
C437        C442   1.406       .  A
C438        C439   1.400       .  A
C438        H443   1.084       .  S
C439        C440   1.398       .  A
C440        C441   1.397       .  A
C440        H444   1.084       .  S
C441        C442   1.407       .  A
C442        H445   1.084       .  S
C446        C521   1.481       .  S
C446        C447   1.401       .  A
C446        C451   1.400       .  A
C447        C448   1.410       .  A
C447        H452   1.085       .  S
C448        C449   1.404       .  A
C449        C450   1.407       .  A
C449        H453   1.084       .  S
C450        C451   1.402       .  A
C451        H454   1.084       .  S
O455       Zr467   2.459       .  S
O455        C457   1.289       .  A
O456      Zr2809   2.399   1_455  S
O456        C457   1.283       .  A
C457        C681   1.479       .  S
O458       Zr470   2.433       .  S
O458        C460   1.284       .  A
O459      Zr2038   2.405   1_455  S
O459        C460   1.283       .  A
C460        C569   1.462       .  S
O461       Zr470   2.448       .  S
O461        C463   1.286       .  A
O462      Zr2037   2.389   1_455  S
O462        C463   1.279       .  A
C463        C694   1.460       .  S
O464       Zr467   2.453       .  S
O464        C466   1.288       .  A
O465      Zr2810   2.410   1_455  S
O465        C466   1.284       .  A
C466        C537   1.475       .  S
Zr467       O468   2.434       .  S
Zr467       O469   2.435       .  S
Zr467      O1245   2.375       .  S
Zr467      O1246   2.375       .  S
Zr467      O2041   2.379   1_455  S
Zr467      O2043   2.375   1_455  S
O468       H1283   0.990       .  S
O469        H510   0.990       .  S
O469        H514   0.990       .  S
Zr470       O471   2.435       .  S
Zr470       O472   2.436       .  S
Zr470       O474   2.383       .  S
Zr470       O473   2.370       .  S
Zr470      O2042   2.377   1_455  S
Zr470      O2044   2.381   1_455  S
O471        H512   0.990       .  S
O471        H515   0.990       .  S
O472        H505   0.990       .  S
O473      Zr1239   2.375   1_545  S
O473      Zr2037   2.358   1_455  S
O474      Zr1239   2.375   1_545  S
O474      Zr2038   2.371   1_455  S
O474        H501   0.966       .  S
O475       Zr487   2.478       .  S
O475        C477   1.293       .  A
O476      Zr1266   2.402       .  S
O476        C477   1.284       .  A
C477        C518   1.507       .  S
O478       Zr490   2.460       .  S
O478        C480   1.289       .  A
O479       Zr493   2.386       .  S
O479        C480   1.279       .  A
C480        C662   1.465       .  S
O481       Zr490   2.466       .  S
O481        C483   1.291       .  A
O482       Zr494   2.397       .  S
O482        C483   1.280       .  A
C483        C553   1.493       .  S
O484       Zr487   2.493       .  S
O484        C486   1.296       .  A
O485      Zr1265   2.372       .  S
O485        C486   1.278       .  A
C486        C649   1.505       .  S
Zr487       O488   2.435       .  S
Zr487       O489   2.433       .  S
Zr487       O499   2.376       .  S
Zr487       O497   2.386       .  S
Zr487      O1267   2.381       .  S
Zr487      O1268   2.374       .  S
O488        H508   0.990       .  S
O488        H513   0.990       .  S
O489        H509   0.990       .  S
Zr490       O491   2.434       .  S
Zr490       O492   2.434       .  S
Zr490       O496   2.377       .  S
Zr490       O495   2.378       .  S
Zr490       O500   2.379       .  S
Zr490       O498   2.384       .  S
O491        H507   0.990       .  S
O492        H506   0.990       .  S
O492        H516   0.990       .  S
Zr493      O2772   2.399   1_545  S
Zr493      O2006   2.389       .  S
Zr493      O1257   2.372   1_545  S
Zr493       O496   2.368       .  S
Zr493       O498   2.367       .  S
Zr493      O2017   2.358       .  S
Zr493      O1271   2.372   1_545  S
Zr494      O2003   2.405       .  S
Zr494      O2781   2.410   1_545  S
Zr494      O1248   2.402   1_545  S
Zr494       O495   2.378       .  S
Zr494       O500   2.370       .  S
Zr494      O2018   2.371       .  S
Zr494      O1269   2.371   1_545  S
O495      Zr1259   2.381   1_545  S
O495        H503   0.966       .  S
O496      Zr1259   2.374   1_545  S
O497      Zr2011   2.379       .  S
O497      Zr1266   2.371       .  S
O498      Zr2014   2.377       .  S
O498        H502   0.966       .  S
O499      Zr2011   2.375       .  S
O499      Zr1265   2.372       .  S
O499        H504   0.966       .  S
O500      Zr2014   2.381       .  S
H511       O1240   0.990       .  S
C517        C518   1.413       .  A
C517        C522   1.395       .  A
C517        H524   1.081       .  S
C518        C519   1.423       .  A
C519        C520   1.416       .  A
C519        C526   1.506       .  S
C520        C521   1.404       .  A
C520        H525   1.084       .  S
C521        C522   1.406       .  A
C522        C523   1.510       .  S
C523        H527   1.111       .  S
C523        H528   1.110       .  S
C523        H529   1.110       .  S
C526        H530   1.110       .  S
C526        H531   1.110       .  S
C526        H532   1.111       .  S
C533        C534   1.406       .  A
C533        C538   1.398       .  A
C533        H540   1.083       .  S
C534        C535   1.421       .  A
C535        C536   1.407       .  A
C535        C542   1.507       .  S
C536        C537   1.401       .  A
C536        H541   1.084       .  S
C537        C538   1.410       .  A
C538        C539   1.504       .  S
C539        H543   1.111   1_455  S
C539        H545   1.110       .  S
C539       H2088   1.100   1_455  S
C542        H546   1.110       .  S
C542        H547   1.108       .  S
C542        H548   1.111       .  S
H544       C2083   1.100       .  S
C549        C550   1.392       .  A
C549        C554   1.390       .  A
C549        H556   1.085       .  S
C550        C551   1.411       .  A
C551        C552   1.413       .  A
C551        C558   1.505       .  S
C552        C553   1.411       .  A
C552        H557   1.084       .  S
C553        C554   1.424       .  A
C554        C555   1.505       .  S
C555        H559   1.111       .  S
C555        H560   1.107       .  S
C555        H561   1.109       .  S
C558        H562   1.110       .  S
C558        H563   1.109       .  S
C558        H564   1.111       .  S
C565        C566   1.408       .  A
C565        C570   1.404       .  A
C565        H572   1.084       .  S
C566        C567   1.422       .  A
C567        C568   1.395       .  A
C567        C574   1.507       .  S
C568        C569   1.393       .  A
C568        H573   1.085       .  S
C569        C570   1.408       .  A
C570        C571   1.506       .  S
C571        H575   1.111       .  S
C571        H576   1.111       .  S
C571        H577   1.109       .  S
C574        H578   1.110       .  S
C574        H579   1.106       .  S
C574        H580   1.111       .  S
C581        C582   1.412       .  A
C581        C586   1.391       .  A
C581        H588   1.082       .  S
C582        C583   1.422       .  A
C583        C584   1.413       .  A
C583        C590   1.506       .  S
C584        C585   1.402       .  A
C584        H589   1.084       .  S
C585        C586   1.404       .  A
C586        C587   1.512       .  S
C587        H591   1.111       .  S
C587        H592   1.110       .  S
C587        H593   1.110       .  S
C590        H594   1.110       .  S
C590        H595   1.110       .  S
C590        H596   1.111       .  S
C597        C598   1.405       .  A
C597        C602   1.408       .  A
C597        H604   1.084       .  S
C598        C599   1.415       .  A
C599        C600   1.398       .  A
C599        C606   1.505       .  S
C600        C601   1.402       .  A
C600        H605   1.085       .  S
C601        C602   1.417       .  A
C602        C603   1.506       .  S
C603        H607   1.110       .  S
C603        H608   1.110       .  S
C603        H609   1.108       .  S
C606        H610   1.105       .  S
C606        H611   1.110       .  S
C606        H612   1.111       .  S
C613        C614   1.397       .  A
C613        C618   1.399       .  A
C613        H620   1.084       .  S
C614        C615   1.412       .  A
C615        C616   1.410       .  A
C615        C622   1.505       .  S
C616        C617   1.409       .  A
C616        H621   1.084       .  S
C617        C618   1.423       .  A
C618        C619   1.508       .  S
C619        H623   1.108       .  S
C619        H624   1.104       .  S
C619        H625   1.110       .  S
C622        H626   1.110       .  S
C622        H627   1.111       .  S
C622        H628   1.111       .  S
C629        C630   1.407       .  A
C629        C634   1.394       .  A
C629        H636   1.084       .  S
C630        C631   1.419       .  A
C631        C632   1.410       .  A
C631        C638   1.505       .  S
C632        C633   1.402       .  A
C632        H637   1.084       .  S
C633        C634   1.409       .  A
C634        C635   1.511       .  S
C635        H639   1.110       .  S
C635        H640   1.110       .  S
C635        H641   1.109       .  S
C638        H642   1.110       .  S
C638        H643   1.110       .  S
C638        H644   1.111       .  S
C645        C646   1.405       .  A
C645        C650   1.415       .  A
C645        H652   1.084       .  S
C646        C647   1.404       .  A
C647        C648   1.395       .  A
C647        C654   1.513       .  S
C648        C649   1.417       .  A
C648        H653   1.083       .  S
C649        C650   1.421       .  A
C650        C651   1.505       .  S
C651        H655   1.111       .  S
C651        H656   1.110       .  S
C651        H657   1.110       .  S
C654        H658   1.108       .  S
C654        H659   1.109       .  S
C654        H660   1.111       .  S
C661        C662   1.400       .  A
C661        C666   1.398       .  A
C661        H668   1.085       .  S
C662        C663   1.409       .  A
C663        C664   1.405       .  A
C663        C670   1.506       .  S
C664        C665   1.409       .  A
C664        H669   1.084       .  S
C665        C666   1.420       .  A
C666        C667   1.510       .  S
C667        H671   1.110       .  S
C667        H672   1.107       .  S
C667        H673   1.108       .  S
C670        H674   1.110       .  S
C670        H675   1.109       .  S
C670        H676   1.111       .  S
C677        C678   1.414       .  A
C677        C682   1.411       .  A
C677        H684   1.083       .  S
C678        C679   1.424       .  A
C679        C680   1.397       .  A
C679        C686   1.510       .  S
C680        C681   1.398       .  A
C680        H685   1.085       .  S
C681        C682   1.410       .  A
C682        C683   1.505       .  S
C683        H687   1.111       .  S
C683        H689   1.110       .  S
C683       H1460   1.111       .  S
C686        H690   1.110       .  S
C686        H691   1.106       .  S
C686        H692   1.106   1_455  S
H688       C1455   1.111       .  S
C693        C694   1.397       .  A
C693        C698   1.399       .  A
C693        H700   1.085       .  S
C694        C695   1.405       .  A
C695        C696   1.403       .  A
C695        C702   1.507       .  S
C696        C697   1.413       .  A
C696        H701   1.084       .  S
C697        C698   1.423       .  A
C698        C699   1.511       .  S
C699        H703   1.111       .  S
C699        H704   1.110       .  S
C699        H705   1.107       .  S
C702        H707   1.110       .  S
C702        H708   1.111       .  S
C702       H2250   1.111       .  S
H706       C2246   1.111       .  S
C709        C710   1.414       .  A
C709        C714   1.408       .  A
C709        H716   1.083       .  S
C710        C711   1.428       .  A
C711        C712   1.396       .  A
C711        C718   1.511       .  S
C712        C713   1.396       .  A
C712        H717   1.085       .  S
C713        C714   1.406       .  A
C714        C715   1.505       .  S
C715        H719   1.111       .  S
C715        H720   1.110       .  S
C715        H721   1.110       .  S
C718        H722   1.108       .  S
C718        H723   1.109       .  S
C718        H724   1.111       .  S
C725        C726   1.400       .  A
C725        C730   1.403       .  A
C725        H732   1.085       .  S
C726        C727   1.413       .  A
C727        C728   1.411       .  A
C727        C734   1.505       .  S
C728        C729   1.408       .  A
C728        H733   1.084       .  S
C729        C730   1.421       .  A
C730        C731   1.507       .  S
C731        H735   1.111       .  S
C731        H736   1.109       .  S
C731        H737   1.109       .  S
C734        H738   1.109       .  S
C734        H739   1.110       .  S
C734        H740   1.111       .  S
C741        C742   1.404       .  A
C741        C746   1.399       .  A
C741        H748   1.085       .  S
C742        C743   1.413       .  A
C743        C744   1.411       .  A
C743        C750   1.506       .  S
C744        C745   1.410       .  A
C744        H749   1.084       .  S
C745        C746   1.421       .  A
C746        C747   1.513       .  S
C747        H751   1.111       .  S
C747        H752   1.108       .  S
C747        H753   1.111       .  S
C750        H754   1.108       .  S
C750        H755   1.110       .  S
C750        H756   1.111       .  S
C757        C758   1.406       .  A
C757        C762   1.393       .  A
C757        H764   1.081       .  S
C758        C759   1.423       .  A
C759        C760   1.411       .  A
C759        C766   1.507       .  S
C760        C761   1.401       .  A
C760        H765   1.084       .  S
C761        C762   1.412       .  A
C762        C763   1.512       .  S
C763        H767   1.111       .  S
C763        H768   1.108       .  S
C763        H769   1.110       .  S
C766        H770   1.110       .  S
C766        H771   1.110       .  S
C766        H772   1.111       .  S
O773       Zr785   2.413       .  S
O773        C775   1.284       .  A
O774      Zr2355   2.474       .  S
O774        C775   1.295       .  A
C775        C837   1.486       .  S
O776       Zr788   2.418       .  S
O776        C778   1.282       .  A
O777       Zr812   2.483       .  S
O777        C778   1.298       .  A
C778        C962   1.480       .  S
O779       Zr788   2.415       .  S
O779        C781   1.283       .  A
O780      Zr2355   2.462       .  S
O780        C781   1.293       .  A
C781        C953   1.473       .  S
O782       Zr785   2.406       .  S
O782        C784   1.282       .  A
O783       Zr812   2.490       .  S
O783        C784   1.299       .  A
C784        C917   1.488       .  S
Zr785       O786   2.434       .  S
Zr785       O787   2.436       .  S
Zr785       O791   2.363       .  S
Zr785       O792   2.366       .  S
Zr785       O815   2.366       .  S
Zr785      O2361   2.363       .  S
O786        H829   0.990       .  S
O787        H828   0.990       .  S
O787        H832   0.990       .  S
Zr788       O789   2.436       .  S
Zr788       O790   2.436       .  S
Zr788       O792   2.363       .  S
Zr788       O791   2.365       .  S
Zr788      O2360   2.366       .  S
Zr788       O818   2.369       .  S
O789        H830   0.990       .  S
O789        H833   0.990       .  S
O790        H823   0.990       .  S
O791      Zr2355   2.389       .  S
O792       Zr812   2.397       .  S
O792        H819   0.965       .  S
O793       Zr805   2.415       .  S
O793        C795   1.284       .  A
O794      Zr2356   2.484   1_455  S
O794        C795   1.298       .  A
C795        C910   1.490       .  S
O796       Zr808   2.409       .  S
O796        C798   1.282       .  A
O797       Zr811   2.461   1_455  S
O797        C798   1.293       .  A
C798        C935   1.469       .  S
O799       Zr808   2.413       .  S
O799        C801   1.282       .  A
O800      Zr2356   2.482   1_455  S
O800        C801   1.298       .  A
C801        C944   1.478       .  S
O802       Zr805   2.416       .  S
O802        C804   1.284       .  A
O803       Zr811   2.472   1_455  S
O803        C804   1.295       .  A
C804        C926   1.485       .  S
Zr805       O806   2.438       .  S
Zr805       O807   2.435       .  S
Zr805       O813   2.365       .  S
Zr805       O814   2.364       .  S
Zr805       O817   2.366   1_455  S
Zr805      O2359   2.368   1_455  S
O806        H826   0.990       .  S
O806        H831   0.990       .  S
O807        H827   0.990       .  S
Zr808       O809   2.434       .  S
Zr808       O810   2.435       .  S
Zr808       O814   2.364       .  S
Zr808       O813   2.362       .  S
Zr808      O2362   2.368   1_455  S
Zr808       O816   2.364   1_455  S
O809        H825   0.990       .  S
O810        H824   0.990       .  S
O810        H834   0.990       .  S
Zr811      O2318   2.474       .  S
Zr811      O2324   2.462       .  S
Zr811      O2335   2.389       .  S
Zr811       O814   2.391   1_655  S
Zr811       O816   2.402       .  S
Zr811       O817   2.400       .  S
Zr812      O2338   2.484       .  S
Zr812      O2344   2.482       .  S
Zr812      O2357   2.398       .  S
Zr812       O815   2.404       .  S
Zr812       O818   2.399       .  S
O813      Zr2356   2.398   1_455  S
O813        H821   0.965       .  S
O815      Zr2349   2.368       .  S
O816      Zr2332   2.366       .  S
O816        H820   0.966       .  S
O817      Zr2329   2.363       .  S
O817        H822   0.966       .  S
O818      Zr2352   2.368       .  S
C835       C1533   1.479       .  S
C835        C836   1.399       .  A
C835        C840   1.391       .  A
C836        C837   1.413       .  A
C836        H841   1.084       .  S
C837        C838   1.414       .  A
C838        C839   1.415       .  A
C838        H842   1.082       .  S
C839        C852   1.479       .  S
C839        C840   1.396       .  A
C840        H843   1.085       .  S
O844       Zr856   2.452       .  S
O844        C846   1.290       .  A
O845        C846   1.283       .  A
C846        C955   1.471       .  S
O847       Zr859   2.466       .  S
O847        C849   1.295       .  A
O848        C849   1.280       .  A
C849        C928   1.480       .  S
O850       Zr859   2.463       .  S
O850        C852   1.295       .  A
O851        C852   1.280       .  A
O853       Zr856   2.457       .  S
O853        C855   1.291       .  A
O854        C855   1.282       .  A
C855        C937   1.471       .  S
Zr856       O857   2.434       .  S
Zr856       O858   2.436       .  S
Zr856       O862   2.376       .  S
Zr856       O863   2.375       .  S
Zr856       O886   2.377       .  S
O857        H900   0.990       .  S
O858        H899   0.990       .  S
O858        H903   0.990       .  S
Zr859       O860   2.435       .  S
Zr859       O861   2.435       .  S
Zr859       O863   2.368       .  S
Zr859       O862   2.370       .  S
O860        H901   0.990       .  S
O860        H904   0.990       .  S
O861        H894   0.990       .  S
O863        H890   0.966       .  S
O864       Zr876   2.491       .  S
O864        C866   1.297       .  A
O865       Zr883   2.396   1_565  S
O865        C866   1.279       .  A
C866        C946   1.477       .  S
O867       Zr879   2.456       .  S
O867        C869   1.292       .  A
O868       Zr882   2.425       .  S
O868        C869   1.284       .  A
C869        C919   1.484       .  S
O870       Zr879   2.453       .  S
O870        C872   1.292       .  A
O871       Zr883   2.419   1_565  S
O871        C872   1.282       .  A
C872        C908   1.481       .  S
O873       Zr876   2.482       .  S
O873        C875   1.296       .  A
O874       Zr882   2.398       .  S
O874        C875   1.280       .  A
C875        C964   1.475       .  S
Zr876       O877   2.435       .  S
Zr876       O878   2.434       .  S
Zr876       O884   2.380       .  S
Zr876       O885   2.384       .  S
Zr876       O888   2.382       .  S
O877        H897   0.990       .  S
O877        H902   0.990       .  S
O878        H898   0.990       .  S
Zr879       O880   2.434       .  S
Zr879       O881   2.436       .  S
Zr879       O885   2.372       .  S
Zr879       O884   2.371       .  S
Zr879       O889   2.372       .  S
Zr879       O887   2.370       .  S
O880        H896   0.990       .  S
O881        H895   0.990       .  S
O881        H905   0.990       .  S
Zr882       O885   2.382       .  S
Zr882       O887   2.382       .  S
Zr882       O888   2.391       .  S
Zr883       O884   2.386   1_545  S
Zr883       O889   2.381   1_545  S
O884        H892   0.966       .  S
O887        H891   0.966       .  S
C906       C1514   1.492       .  S
C906        C907   1.396       .  A
C906        C911   1.403       .  A
C907        C908   1.399       .  A
C907        H912   1.085       .  S
C908        C909   1.414       .  A
C909        C910   1.414       .  A
C909        H913   1.084       .  S
C910        C911   1.417       .  A
C911        H914   1.083       .  S
C915       C1498   1.488       .  S
C915        C916   1.403       .  A
C915        C920   1.397       .  A
C916        C917   1.414       .  A
C916        H921   1.085       .  S
C917        C918   1.412       .  A
C918        C919   1.416       .  A
C918        H922   1.084       .  S
C919        C920   1.405       .  A
C920        H923   1.084       .  S
C924       C1485   1.475       .  S
C924        C925   1.399       .  A
C924        C929   1.394       .  A
C925        C926   1.411       .  A
C925        H930   1.085       .  S
C926        C927   1.413       .  A
C927        C928   1.416       .  A
C927        H931   1.083       .  S
C928        C929   1.397       .  A
C929        H932   1.085       .  S
C933       C1469   1.494       .  S
C933        C934   1.408       .  A
C933        C938   1.404       .  A
C934        C935   1.400       .  A
C934        H939   1.084       .  S
C935        C936   1.400       .  A
C936        C937   1.408       .  A
C936        H940   1.083       .  S
C937        C938   1.401       .  A
C938        H941   1.079       .  S
C942       C1450   1.502       .  S
C942        C943   1.406       .  A
C942        C947   1.412       .  A
C943        C944   1.400       .  A
C943        H948   1.079       .  S
C944        C945   1.404       .  A
C945        C946   1.411       .  A
C945        H949   1.084       .  S
C946        C947   1.405       .  A
C947        H950   1.083       .  S
C951       C1437   1.488       .  S
C951        C952   1.406       .  A
C951        C956   1.401       .  A
C952        C953   1.404       .  A
C952        H957   1.084       .  S
C953        C954   1.405       .  A
C954        C955   1.409       .  A
C954        H958   1.083       .  S
C955        C956   1.400       .  A
C956        H959   1.081       .  S
C960       C1418   1.479       .  S
C960        C961   1.407       .  A
C960        C965   1.401       .  A
C961        C962   1.404       .  A
C961        H966   1.084       .  S
C962        C963   1.408       .  A
C963        C964   1.413       .  A
C963        H967   1.084       .  S
C964        C965   1.401       .  A
C965        H968   1.084       .  S
O969       Zr981   2.470       .  S
O969        C971   1.293       .  A
O970      Zr1007   2.413       .  S
O970        C971   1.284       .  A
C971       C1501   1.494       .  S
O972       Zr984   2.463   1_554  S
O972        C974   1.290       .  A
O973      Zr1008   2.388       .  S
O973        C974   1.281       .  A
C974       C1402   1.487       .  S
O975       Zr984   2.446       .  S
O975        C977   1.287       .  A
O976      Zr1007   2.408       .  S
O976        C977   1.286       .  A
C977       C1530   1.494       .  S
O978       Zr981   2.460   1_554  S
O978        C980   1.291       .  A
O979      Zr1008   2.408       .  S
O979        C980   1.283       .  A
C980       C1370   1.482       .  S
Zr981       O982   2.434       .  S
Zr981       O983   2.435       .  S
Zr981       O987   2.372       .  S
Zr981       O988   2.379   1_556  S
Zr981      O1011   2.382   1_556  S
Zr981      O1013   2.377       .  S
O982       H1025   0.990       .  S
O983       H1024   0.990       .  S
O983       H1028   0.990       .  S
Zr984       O985   2.435       .  S
Zr984       O986   2.435       .  S
Zr984       O988   2.374   1_556  S
Zr984       O987   2.379       .  S
Zr984      O1012   2.384       .  S
Zr984      O1014   2.375   1_556  S
O985       H1026   0.990   1_556  S
O985       H1029   0.990       .  S
O986       H1019   0.990       .  S
O987      Zr1007   2.368       .  S
O988      Zr1008   2.371       .  S
O988       H1015   0.966       .  S
O989      Zr1001   2.472   1_554  S
O989        C991   1.292       .  A
O990      Zr1008   2.383       .  S
O990        C991   1.280       .  A
C991       C1354   1.499       .  S
O992      Zr1004   2.452       .  S
O992        C994   1.290       .  A
O993      Zr1007   2.401       .  S
O993        C994   1.280       .  A
C994       C1482   1.497       .  S
O995      Zr1004   2.457   1_554  S
O995        C997   1.289       .  A
O996      Zr1008   2.409       .  S
O996        C997   1.284       .  A
C997       C1386   1.478       .  S
O998      Zr1001   2.461       .  S
O998       C1000   1.292       .  A
O999      Zr1007   2.406       .  S
O999       C1000   1.282       .  A
C1000      C1517   1.493       .  S
Zr1001     O1002   2.435       .  S
Zr1001     O1003   2.433       .  S
Zr1001     O1009   2.373   1_556  S
Zr1001     O1010   2.377       .  S
Zr1001     O1013   2.384       .  S
Zr1001     O1011   2.378   1_556  S
O1002      H1022   0.990   1_556  S
O1002      H1027   0.990       .  S
O1003      H1023   0.990   1_556  S
Zr1004     O1005   2.434       .  S
Zr1004     O1006   2.434       .  S
Zr1004     O1010   2.376       .  S
Zr1004     O1009   2.373   1_556  S
Zr1004     O1014   2.378   1_556  S
Zr1004     O1012   2.378       .  S
O1005      H1021   0.990       .  S
O1006      H1020   0.990   1_556  S
O1006      H1030   0.990       .  S
Zr1007     O1010   2.371       .  S
Zr1007     O1012   2.378       .  S
Zr1007     O1013   2.375       .  S
Zr1008     O1009   2.372       .  S
Zr1008     O1011   2.371       .  S
Zr1008     O1014   2.368       .  S
O1009      H1017   0.966       .  S
O1012      H1016   0.966       .  S
O1013      H1018   0.966       .  S
C1031      C1357   1.472       .  S
C1031      C1032   1.399       .  A
C1031      C1036   1.396       .  A
C1032      C1033   1.409       .  A
C1032      H1037   1.085       .  S
C1033      C1060   1.465       .  S
C1033      C1034   1.400       .  A
C1034      C1035   1.400       .  A
C1034      H1038   1.084       .  S
C1035      C1122   1.452       .  S
C1035      C1036   1.397       .  A
C1036      H1039   1.085       .  S
C1040      C1405   1.474       .  S
C1040      C1041   1.397       .  A
C1040      C1045   1.397       .  A
C1041      C1042   1.400       .  A
C1041      H1046   1.084       .  S
C1042      C1142   1.460       .  S
C1042      C1043   1.406       .  A
C1043      C1044   1.403       .  A
C1043      H1047   1.083       .  S
C1044      C1080   1.466       .  S
C1044      C1045   1.403       .  A
C1045      H1048   1.085       .  S
C1049      C1373   1.486       .  S
C1049      C1050   1.402       .  A
C1049      C1054   1.401       .  A
C1050      C1051   1.407       .  A
C1050      H1055   1.085       .  S
C1051      C1069   1.468       .  S
C1051      C1052   1.400       .  A
C1052      C1053   1.403       .  A
C1052      H1056   1.084       .  S
C1053      C1131   1.457       .  S
C1053      C1054   1.401       .  A
C1054      H1057   1.084       .  S
O1058     Zr1070   2.396       .  S
O1058      C1060   1.280       .  A
O1059      C1060   1.291       .  A
O1061     Zr1073   2.411       .  S
O1061      C1063   1.281       .  A
O1062      C1063   1.294       .  A
C1063      C1222   1.464       .  S
O1064     Zr1073   2.403       .  S
O1064      C1066   1.280       .  A
O1065      C1066   1.290       .  A
C1066      C1211   1.454       .  S
O1067     Zr1070   2.388       .  S
O1067      C1069   1.279       .  A
O1068      C1069   1.293       .  A
Zr1070     O1071   2.434       .  S
Zr1070     O1072   2.437       .  S
Zr1070     O1076   2.358       .  S
Zr1070     O1077   2.360       .  S
O1071      H1114   0.990       .  S
O1072      H1113   0.990       .  S
O1072      H1117   0.990       .  S
Zr1073     O1074   2.437       .  S
Zr1073     O1075   2.436       .  S
Zr1073     O1077   2.365       .  S
Zr1073     O1076   2.368       .  S
O1074      H1115   0.990       .  S
O1074      H1118   0.990       .  S
O1075      H1108   0.990       .  S
O1077      H1104   0.966       .  S
O1078     Zr1090   2.405       .  S
O1078      C1080   1.282       .  A
O1079     Zr1097   2.450       .  S
O1079      C1080   1.291       .  A
O1081     Zr1093   2.403       .  S
O1081      C1083   1.280       .  A
O1082     Zr1096   2.438       .  S
O1082      C1083   1.289       .  A
C1083      C1195   1.455       .  S
O1084     Zr1093   2.405       .  S
O1084      C1086   1.280       .  A
O1085     Zr1097   2.461       .  S
O1085      C1086   1.294       .  A
C1086      C1202   1.463       .  S
O1087     Zr1090   2.412       .  S
O1087      C1089   1.284       .  A
O1088     Zr1096   2.452       .  S
O1088      C1089   1.291       .  A
C1089      C1184   1.469       .  S
Zr1090     O1091   2.436       .  S
Zr1090     O1092   2.432       .  S
Zr1090     O1098   2.355       .  S
Zr1090     O1099   2.359       .  S
Zr1090     O1102   2.354       .  S
Zr1090     O1100   2.359       .  S
O1091      H1111   0.990       .  S
O1091      H1116   0.990       .  S
O1092      H1112   0.990       .  S
Zr1093     O1094   2.433       .  S
Zr1093     O1095   2.435       .  S
Zr1093     O1099   2.367       .  S
Zr1093     O1098   2.366       .  S
Zr1093     O1103   2.365       .  S
Zr1093     O1101   2.359       .  S
O1094      H1110   0.990       .  S
O1095      H1109   0.990       .  S
O1095      H1119   0.990       .  S
Zr1096     O1099   2.383       .  S
Zr1096     O1101   2.398       .  S
Zr1096     O1102   2.385       .  S
Zr1097     O1098   2.392       .  S
Zr1097     O1100   2.389       .  S
Zr1097     O1103   2.395       .  S
O1098      H1106   0.965       .  S
O1101      H1105   0.966       .  S
O1102      H1107   0.966       .  S
O1120     Zr1132   2.394   1_455  S
O1120      C1122   1.278       .  A
O1121     Zr1158   2.443       .  S
O1121      C1122   1.291       .  A
O1123     Zr2679   2.393       .  S
O1123      C1125   1.279       .  A
O1124     Zr1159   2.471       .  S
O1124      C1125   1.295       .  A
C1125      C1220   1.475       .  S
O1126     Zr1135   2.395   1_455  S
O1126      C1128   1.280       .  A
O1127     Zr1158   2.451       .  S
O1127      C1128   1.291       .  A
C1128      C1213   1.464       .  S
O1129     Zr2676   2.397       .  S
O1129      C1131   1.278       .  A
O1130     Zr1159   2.452       .  S
O1130      C1131   1.292       .  A
Zr1132     O2673   2.397       .  S
Zr1132     O1133   2.434       .  S
Zr1132     O2678   2.436       .  S
Zr1132     O1138   2.366   1_655  S
Zr1132     O2683   2.364       .  S
Zr1132     O2706   2.364       .  S
Zr1132     O1164   2.366   1_655  S
O1133      H1176   0.990       .  S
O1134     Zr2676   2.436       .  S
O1134      H2719   0.990       .  S
O1134      H2723   0.990       .  S
Zr1135     O2667   2.393       .  S
Zr1135     O1136   2.436       .  S
Zr1135     O2681   2.436       .  S
Zr1135     O2683   2.359       .  S
Zr1135     O1138   2.360   1_655  S
Zr1135     O1163   2.355   1_655  S
Zr1135     O2709   2.359       .  S
O1136      H2721   0.990       .  S
O1136      H1180   0.990       .  S
O1137     Zr2679   2.436       .  S
O1137      H2714   0.990       .  S
O1138     Zr1158   2.381       .  S
O1139     Zr2676   2.364       .  S
O1139     Zr2679   2.359       .  S
O1139     Zr1159   2.386       .  S
O1139      H1166   0.966       .  S
O1140     Zr1152   2.411       .  S
O1140      C1142   1.281       .  A
O1141     Zr1159   2.451       .  S
O1141      C1142   1.292       .  A
O1143     Zr2699   2.411   1_455  S
O1143      C1145   1.284       .  A
O1144     Zr1158   2.435       .  S
O1144      C1145   1.288       .  A
C1145      C1193   1.458       .  S
O1146     Zr1155   2.411       .  S
O1146      C1148   1.282       .  A
O1147     Zr1159   2.446       .  S
O1147      C1148   1.290       .  A
C1148      C1204   1.466       .  S
O1149     Zr2696   2.419   1_455  S
O1149      C1151   1.283       .  A
O1150     Zr1158   2.451       .  S
O1150      C1151   1.292       .  A
C1151      C1186   1.468       .  S
Zr1152     O2693   2.419       .  S
Zr1152     O1153   2.438       .  S
Zr1152     O1154   2.435       .  S
Zr1152     O1160   2.371       .  S
Zr1152     O2705   2.364       .  S
Zr1152     O2708   2.364       .  S
Zr1152     O1162   2.371       .  S
O1153      H1173   0.990       .  S
O1153      H1178   0.990       .  S
O1154      H1174   0.990       .  S
Zr1155     O2687   2.411       .  S
Zr1155     O1156   2.434       .  S
Zr1155     O1157   2.432       .  S
Zr1155     O2705   2.362       .  S
Zr1155     O1160   2.354       .  S
Zr1155     O1165   2.359       .  S
Zr1155     O2707   2.356       .  S
O1156      H2716   0.990       .  S
O1157      H1171   0.990       .  S
O1157      H1181   0.990       .  S
Zr1158     O1161   2.384       .  S
Zr1158     O1163   2.390       .  S
Zr1158     O1164   2.393       .  S
Zr1159     O1160   2.396       .  S
Zr1159     O1162   2.396       .  S
Zr1159     O1165   2.385       .  S
O1160      H1168   0.965       .  S
O1161     Zr2696   2.364   1_455  S
O1161     Zr2699   2.362   1_455  S
O1162     Zr2676   2.364       .  S
O1163     Zr2699   2.356   1_455  S
O1163      H1167   0.966       .  S
O1164     Zr2696   2.364   1_455  S
O1164      H1169   0.966       .  S
O1165     Zr2679   2.359       .  S
H1170      O2681   0.990   1_455  S
H1172      O2700   0.990   1_455  S
H1175      O2678   0.990   1_455  S
H1177      O2680   0.990       .  S
H1179      O2678   0.990       .  S
C1182      C1389   1.496       .  S
C1182      C1183   1.402       .  A
C1182      C1187   1.408       .  A
C1183      C1184   1.402       .  A
C1183      H1188   1.080       .  S
C1184      C1185   1.401       .  A
C1185      C1186   1.405       .  A
C1185      H1189   1.082       .  S
C1186      C1187   1.406       .  A
C1187      H1190   1.084       .  S
C1191      C1338   1.487       .  S
C1191      C1192   1.400       .  A
C1191      C1196   1.403       .  A
C1192      C1193   1.400       .  A
C1192      H1197   1.080       .  S
C1193      C1194   1.398       .  A
C1194      C1195   1.400       .  A
C1194      H1198   1.083       .  S
C1195      C1196   1.399       .  A
C1196      H1199   1.084       .  S
C1200      C1322   1.476       .  S
C1200      C1201   1.401       .  A
C1200      C1205   1.398       .  A
C1201      C1202   1.398       .  A
C1201      H1206   1.085       .  S
C1202      C1203   1.404       .  A
C1203      C1204   1.404       .  A
C1203      H1207   1.083       .  S
C1204      C1205   1.406       .  A
C1205      H1208   1.085       .  S
C1209      C1306   1.493       .  S
C1209      C1210   1.404       .  A
C1209      C1214   1.406       .  A
C1210      C1211   1.400       .  A
C1210      H1215   1.084       .  S
C1211      C1212   1.398       .  A
C1212      C1213   1.397       .  A
C1212      H1216   1.084       .  S
C1213      C1214   1.407       .  A
C1214      H1217   1.084       .  S
C1218      C1293   1.481       .  S
C1218      C1219   1.401       .  A
C1218      C1223   1.400       .  A
C1219      C1220   1.410       .  A
C1219      H1224   1.085       .  S
C1220      C1221   1.404       .  A
C1221      C1222   1.407       .  A
C1221      H1225   1.084       .  S
C1222      C1223   1.402       .  A
C1223      H1226   1.084       .  S
O1227     Zr1239   2.459       .  S
O1227      C1229   1.289       .  A
O1228     Zr2037   2.399   1_465  S
O1228      C1229   1.283       .  A
C1229      C1453   1.479       .  S
O1230     Zr1242   2.433       .  S
O1230      C1232   1.284       .  A
O1231     Zr2810   2.405   1_455  S
O1231      C1232   1.283       .  A
C1232      C1341   1.462       .  S
O1233     Zr1242   2.448       .  S
O1233      C1235   1.286       .  A
O1234     Zr2809   2.389   1_455  S
O1234      C1235   1.279       .  A
C1235      C1466   1.460       .  S
O1236     Zr1239   2.453       .  S
O1236      C1238   1.288       .  A
O1237     Zr2038   2.410   1_465  S
O1237      C1238   1.284       .  A
C1238      C1309   1.475       .  S
Zr1239     O1240   2.434       .  S
Zr1239     O1241   2.435       .  S
Zr1239     O2813   2.379   1_455  S
Zr1239     O2815   2.375   1_455  S
O1241      H1282   0.990       .  S
O1241      H1286   0.990       .  S
Zr1242     O1243   2.435       .  S
Zr1242     O1244   2.436       .  S
Zr1242     O1246   2.383       .  S
Zr1242     O1245   2.370       .  S
Zr1242     O2814   2.377   1_455  S
Zr1242     O2816   2.381   1_455  S
O1243      H1284   0.990       .  S
O1243      H1287   0.990       .  S
O1244      H1277   0.990       .  S
O1245     Zr2809   2.358   1_455  S
O1246     Zr2810   2.371   1_455  S
O1246      H1273   0.966       .  S
O1247     Zr1259   2.478       .  S
O1247      C1249   1.293       .  A
O1248      C1249   1.284       .  A
C1249      C1290   1.507       .  S
O1250     Zr1262   2.460       .  S
O1250      C1252   1.289       .  A
O1251     Zr1265   2.386       .  S
O1251      C1252   1.279       .  A
C1252      C1434   1.465       .  S
O1253     Zr1262   2.466       .  S
O1253      C1255   1.291       .  A
O1254     Zr1266   2.397       .  S
O1254      C1255   1.280       .  A
C1255      C1325   1.493       .  S
O1256     Zr1259   2.493       .  S
O1256      C1258   1.296       .  A
O1257      C1258   1.278       .  A
C1258      C1421   1.505       .  S
Zr1259     O1260   2.435       .  S
Zr1259     O1261   2.433       .  S
Zr1259     O1271   2.376       .  S
Zr1259     O1269   2.386       .  S
O1260      H1280   0.990       .  S
O1260      H1285   0.990       .  S
O1261      H1281   0.990       .  S
Zr1262     O1263   2.434       .  S
Zr1262     O1264   2.434       .  S
Zr1262     O1268   2.377       .  S
Zr1262     O1267   2.378       .  S
Zr1262     O1272   2.379       .  S
Zr1262     O1270   2.384       .  S
O1263      H1279   0.990       .  S
O1264      H1278   0.990       .  S
O1264      H1288   0.990       .  S
Zr1265     O2000   2.399       .  S
Zr1265     O2778   2.389       .  S
Zr1265     O2789   2.358       .  S
Zr1265     O1268   2.368       .  S
Zr1265     O1270   2.367       .  S
Zr1266     O2775   2.405       .  S
Zr1266     O2009   2.410       .  S
Zr1266     O2790   2.371       .  S
Zr1266     O1267   2.378       .  S
Zr1266     O1272   2.370       .  S
O1267      H1275   0.966       .  S
O1269     Zr2783   2.379       .  S
O1270     Zr2786   2.377       .  S
O1270      H1274   0.966       .  S
O1271     Zr2783   2.375       .  S
O1271      H1276   0.966       .  S
O1272     Zr2786   2.381       .  S
C1289      C1290   1.413       .  A
C1289      C1294   1.395       .  A
C1289      H1296   1.081       .  S
C1290      C1291   1.423       .  A
C1291      C1292   1.416       .  A
C1291      C1298   1.506       .  S
C1292      C1293   1.404       .  A
C1292      H1297   1.084       .  S
C1293      C1294   1.406       .  A
C1294      C1295   1.510       .  S
C1295      H1299   1.111       .  S
C1295      H1300   1.110       .  S
C1295      H1301   1.110       .  S
C1298      H1302   1.110       .  S
C1298      H1303   1.110       .  S
C1298      H1304   1.111       .  S
C1305      C1306   1.406       .  A
C1305      C1310   1.398       .  A
C1305      H1312   1.083       .  S
C1306      C1307   1.421       .  A
C1307      C1308   1.407       .  A
C1307      C1314   1.507       .  S
C1308      C1309   1.401       .  A
C1308      H1313   1.084       .  S
C1309      C1310   1.410       .  A
C1310      C1311   1.504       .  S
C1311      H1315   1.111   1_455  S
C1311      H2860   1.100   1_455  S
C1311      H1317   1.110       .  S
C1314      H1318   1.110       .  S
C1314      H1319   1.108       .  S
C1314      H1320   1.111       .  S
H1316      C2855   1.100       .  S
C1321      C1322   1.392       .  A
C1321      C1326   1.390       .  A
C1321      H1328   1.085       .  S
C1322      C1323   1.411       .  A
C1323      C1324   1.413       .  A
C1323      C1330   1.505       .  S
C1324      C1325   1.411       .  A
C1324      H1329   1.084       .  S
C1325      C1326   1.424       .  A
C1326      C1327   1.505       .  S
C1327      H1331   1.111       .  S
C1327      H1332   1.107       .  S
C1327      H1333   1.109       .  S
C1330      H1334   1.110       .  S
C1330      H1335   1.109       .  S
C1330      H1336   1.111       .  S
C1337      C1338   1.408       .  A
C1337      C1342   1.404       .  A
C1337      H1344   1.084       .  S
C1338      C1339   1.422       .  A
C1339      C1340   1.395       .  A
C1339      C1346   1.507       .  S
C1340      C1341   1.393       .  A
C1340      H1345   1.085       .  S
C1341      C1342   1.408       .  A
C1342      C1343   1.506       .  S
C1343      H1347   1.111       .  S
C1343      H1348   1.111       .  S
C1343      H1349   1.109       .  S
C1346      H1350   1.110       .  S
C1346      H1351   1.106       .  S
C1346      H1352   1.111       .  S
C1353      C1354   1.412       .  A
C1353      C1358   1.391       .  A
C1353      H1360   1.082       .  S
C1354      C1355   1.422       .  A
C1355      C1356   1.413       .  A
C1355      C1362   1.506       .  S
C1356      C1357   1.402       .  A
C1356      H1361   1.084       .  S
C1357      C1358   1.404       .  A
C1358      C1359   1.512       .  S
C1359      H1363   1.111       .  S
C1359      H1364   1.110       .  S
C1359      H1365   1.110       .  S
C1362      H1366   1.110       .  S
C1362      H1367   1.110       .  S
C1362      H1368   1.111       .  S
C1369      C1370   1.405       .  A
C1369      C1374   1.408       .  A
C1369      H1376   1.084       .  S
C1370      C1371   1.415       .  A
C1371      C1372   1.398       .  A
C1371      C1378   1.505       .  S
C1372      C1373   1.402       .  A
C1372      H1377   1.085       .  S
C1373      C1374   1.417       .  A
C1374      C1375   1.506       .  S
C1375      H1379   1.110       .  S
C1375      H1380   1.110       .  S
C1375      H1381   1.108       .  S
C1378      H1382   1.105       .  S
C1378      H1383   1.110       .  S
C1378      H1384   1.111       .  S
C1385      C1386   1.397       .  A
C1385      C1390   1.399       .  A
C1385      H1392   1.084       .  S
C1386      C1387   1.412       .  A
C1387      C1388   1.410       .  A
C1387      C1394   1.505       .  S
C1388      C1389   1.409       .  A
C1388      H1393   1.084       .  S
C1389      C1390   1.423       .  A
C1390      C1391   1.508       .  S
C1391      H1395   1.108       .  S
C1391      H1396   1.104       .  S
C1391      H1397   1.110       .  S
C1394      H1398   1.110       .  S
C1394      H1399   1.111       .  S
C1394      H1400   1.111       .  S
C1401      C1402   1.407       .  A
C1401      C1406   1.394       .  A
C1401      H1408   1.084       .  S
C1402      C1403   1.419       .  A
C1403      C1404   1.410       .  A
C1403      C1410   1.505       .  S
C1404      C1405   1.402       .  A
C1404      H1409   1.084       .  S
C1405      C1406   1.409       .  A
C1406      C1407   1.511       .  S
C1407      H1411   1.110       .  S
C1407      H1412   1.110       .  S
C1407      H1413   1.109       .  S
C1410      H1414   1.110       .  S
C1410      H1415   1.110       .  S
C1410      H1416   1.111       .  S
C1417      C1418   1.405       .  A
C1417      C1422   1.415       .  A
C1417      H1424   1.084       .  S
C1418      C1419   1.404       .  A
C1419      C1420   1.395       .  A
C1419      C1426   1.513       .  S
C1420      C1421   1.417       .  A
C1420      H1425   1.083       .  S
C1421      C1422   1.421       .  A
C1422      C1423   1.505       .  S
C1423      H1427   1.111       .  S
C1423      H1428   1.110       .  S
C1423      H1429   1.110       .  S
C1426      H1430   1.108       .  S
C1426      H1431   1.109       .  S
C1426      H1432   1.111       .  S
C1433      C1434   1.400       .  A
C1433      C1438   1.398       .  A
C1433      H1440   1.085       .  S
C1434      C1435   1.409       .  A
C1435      C1436   1.405       .  A
C1435      C1442   1.506       .  S
C1436      C1437   1.409       .  A
C1436      H1441   1.084       .  S
C1437      C1438   1.420       .  A
C1438      C1439   1.510       .  S
C1439      H1443   1.110       .  S
C1439      H1444   1.107       .  S
C1439      H1445   1.108       .  S
C1442      H1446   1.110       .  S
C1442      H1447   1.109       .  S
C1442      H1448   1.111       .  S
C1449      C1450   1.414       .  A
C1449      C1454   1.411       .  A
C1449      H1456   1.083       .  S
C1450      C1451   1.424       .  A
C1451      C1452   1.397       .  A
C1451      C1458   1.510       .  S
C1452      C1453   1.398       .  A
C1452      H1457   1.085       .  S
C1453      C1454   1.410       .  A
C1454      C1455   1.505       .  S
C1455      H1459   1.111       .  S
C1455      H1461   1.110       .  S
C1458      H1462   1.110       .  S
C1458      H1463   1.106       .  S
C1458      H1464   1.106   1_455  S
C1465      C1466   1.397       .  A
C1465      C1470   1.399       .  A
C1465      H1472   1.085       .  S
C1466      C1467   1.405       .  A
C1467      C1468   1.403       .  A
C1467      C1474   1.507       .  S
C1468      C1469   1.413       .  A
C1468      H1473   1.084       .  S
C1469      C1470   1.423       .  A
C1470      C1471   1.511       .  S
C1471      H1475   1.111       .  S
C1471      H1476   1.110       .  S
C1471      H1477   1.107       .  S
C1474      H3022   1.111       .  S
C1474      H1479   1.110       .  S
C1474      H1480   1.111       .  S
H1478      C3018   1.111       .  S
C1481      C1482   1.414       .  A
C1481      C1486   1.408       .  A
C1481      H1488   1.083       .  S
C1482      C1483   1.428       .  A
C1483      C1484   1.396       .  A
C1483      C1490   1.511       .  S
C1484      C1485   1.396       .  A
C1484      H1489   1.085       .  S
C1485      C1486   1.406       .  A
C1486      C1487   1.505       .  S
C1487      H1491   1.111       .  S
C1487      H1492   1.110       .  S
C1487      H1493   1.110       .  S
C1490      H1494   1.108       .  S
C1490      H1495   1.109       .  S
C1490      H1496   1.111       .  S
C1497      C1498   1.400       .  A
C1497      C1502   1.403       .  A
C1497      H1504   1.085       .  S
C1498      C1499   1.413       .  A
C1499      C1500   1.411       .  A
C1499      C1506   1.505       .  S
C1500      C1501   1.408       .  A
C1500      H1505   1.084       .  S
C1501      C1502   1.421       .  A
C1502      C1503   1.507       .  S
C1503      H1507   1.111       .  S
C1503      H1508   1.109       .  S
C1503      H1509   1.109       .  S
C1506      H1510   1.109       .  S
C1506      H1511   1.110       .  S
C1506      H1512   1.111       .  S
C1513      C1514   1.404       .  A
C1513      C1518   1.399       .  A
C1513      H1520   1.085       .  S
C1514      C1515   1.413       .  A
C1515      C1516   1.411       .  A
C1515      C1522   1.506       .  S
C1516      C1517   1.410       .  A
C1516      H1521   1.084       .  S
C1517      C1518   1.421       .  A
C1518      C1519   1.513       .  S
C1519      H1523   1.111       .  S
C1519      H1524   1.108       .  S
C1519      H1525   1.111       .  S
C1522      H1526   1.108       .  S
C1522      H1527   1.110       .  S
C1522      H1528   1.111       .  S
C1529      C1530   1.406       .  A
C1529      C1534   1.393       .  A
C1529      H1536   1.081       .  S
C1530      C1531   1.423       .  A
C1531      C1532   1.411       .  A
C1531      C1538   1.507       .  S
C1532      C1533   1.401       .  A
C1532      H1537   1.084       .  S
C1533      C1534   1.412       .  A
C1534      C1535   1.512       .  S
C1535      H1539   1.111       .  S
C1535      H1540   1.108       .  S
C1535      H1541   1.110       .  S
C1538      H1542   1.110       .  S
C1538      H1543   1.110       .  S
C1538      H1544   1.111       .  S
O1545     Zr1557   2.413       .  S
O1545      C1547   1.284       .  A
O1546      C1547   1.295       .  A
C1547      C1609   1.486       .  S
O1548     Zr1560   2.418       .  S
O1548      C1550   1.282       .  A
O1549     Zr1584   2.483       .  S
O1549      C1550   1.298       .  A
C1550      C1734   1.480       .  S
O1551     Zr1560   2.415       .  S
O1551      C1553   1.283       .  A
O1552      C1553   1.293       .  A
C1553      C1725   1.473       .  S
O1554     Zr1557   2.406       .  S
O1554      C1556   1.282       .  A
O1555     Zr1584   2.490       .  S
O1555      C1556   1.299       .  A
C1556      C1689   1.488       .  S
Zr1557     O1558   2.434       .  S
Zr1557     O1559   2.436       .  S
Zr1557     O1563   2.363       .  S
Zr1557     O1564   2.366       .  S
Zr1557     O1587   2.366       .  S
O1558      H1601   0.990       .  S
O1559      H1600   0.990       .  S
O1559      H1604   0.990       .  S
Zr1560     O1561   2.436       .  S
Zr1560     O1562   2.436       .  S
Zr1560     O1564   2.363       .  S
Zr1560     O1563   2.365       .  S
Zr1560     O1590   2.369       .  S
O1561      H1602   0.990       .  S
O1561      H1605   0.990       .  S
O1562      H1595   0.990       .  S
O1564     Zr1584   2.397       .  S
O1564      H1591   0.965       .  S
O1565     Zr1577   2.415       .  S
O1565      C1567   1.284       .  A
O1566      C1567   1.298       .  A
C1567      C1682   1.490       .  S
O1568     Zr1580   2.409       .  S
O1568      C1570   1.282       .  A
O1569     Zr1583   2.461       .  S
O1569      C1570   1.293       .  A
C1570      C1707   1.469       .  S
O1571     Zr1580   2.413       .  S
O1571      C1573   1.282       .  A
O1572      C1573   1.298       .  A
C1573      C1716   1.478       .  S
O1574     Zr1577   2.416       .  S
O1574      C1576   1.284       .  A
O1575     Zr1583   2.472       .  S
O1575      C1576   1.295       .  A
C1576      C1698   1.485       .  S
Zr1577     O1578   2.438       .  S
Zr1577     O1579   2.435       .  S
Zr1577     O1585   2.365       .  S
Zr1577     O1586   2.364       .  S
Zr1577     O1589   2.366       .  S
O1578      H1598   0.990       .  S
O1578      H1603   0.990       .  S
O1579      H1599   0.990       .  S
Zr1580     O1581   2.434       .  S
Zr1580     O1582   2.435       .  S
Zr1580     O1586   2.364       .  S
Zr1580     O1585   2.362       .  S
Zr1580     O1588   2.364       .  S
O1581      H1597   0.990       .  S
O1582      H1596   0.990       .  S
O1582      H1606   0.990       .  S
Zr1583     O1586   2.391       .  S
Zr1583     O1588   2.402       .  S
Zr1583     O1589   2.400       .  S
Zr1584     O1587   2.404       .  S
Zr1584     O1590   2.399       .  S
O1585      H1593   0.965       .  S
O1588      H1592   0.966       .  S
O1589      H1594   0.966       .  S
C1607      C2305   1.479       .  S
C1607      C1608   1.399       .  A
C1607      C1612   1.391       .  A
C1608      C1609   1.413       .  A
C1608      H1613   1.084       .  S
C1609      C1610   1.414       .  A
C1610      C1611   1.415       .  A
C1610      H1614   1.082       .  S
C1611      C1624   1.479       .  S
C1611      C1612   1.396       .  A
C1612      H1615   1.085       .  S
O1616     Zr1628   2.452       .  S
O1616      C1618   1.290       .  A
O1617     Zr2426   2.413   1_545  S
O1617      C1618   1.283       .  A
C1618      C1727   1.471       .  S
O1619     Zr1631   2.466       .  S
O1619      C1621   1.295       .  A
O1620     Zr2427   2.404       .  S
O1620      C1621   1.280       .  A
C1621      C1700   1.480       .  S
O1622     Zr1631   2.463       .  S
O1622      C1624   1.295       .  A
O1623     Zr2426   2.409   1_545  S
O1623      C1624   1.280       .  A
O1625     Zr1628   2.457       .  S
O1625      C1627   1.291       .  A
O1626     Zr2427   2.405       .  S
O1626      C1627   1.282       .  A
C1627      C1709   1.471       .  S
Zr1628     O1629   2.434       .  S
Zr1628     O1630   2.436       .  S
Zr1628     O1634   2.376       .  S
Zr1628     O1635   2.375       .  S
Zr1628     O1658   2.377       .  S
Zr1628     O2432   2.378   1_545  S
O1629      H1672   0.990       .  S
O1630      H1671   0.990       .  S
O1630      H1675   0.990       .  S
Zr1631     O1632   2.435       .  S
Zr1631     O1633   2.435       .  S
Zr1631     O1635   2.368       .  S
Zr1631     O1634   2.370       .  S
Zr1631     O2431   2.369   1_545  S
Zr1631     O2433   2.371   1_545  S
O1632      H1673   0.990       .  S
O1632      H1676   0.990       .  S
O1633      H1666   0.990       .  S
O1634     Zr2426   2.381   1_545  S
O1635     Zr2427   2.383       .  S
O1635      H1662   0.966       .  S
O1636     Zr1648   2.491       .  S
O1636      C1638   1.297       .  A
O1637     Zr1655   2.396       .  S
O1637      C1638   1.279       .  A
C1638      C1718   1.477       .  S
O1639     Zr1651   2.456       .  S
O1639      C1641   1.292       .  A
O1640     Zr1654   2.425       .  S
O1640      C1641   1.284       .  A
C1641      C1691   1.484       .  S
O1642     Zr1651   2.453       .  S
O1642      C1644   1.292       .  A
O1643     Zr1655   2.419       .  S
O1643      C1644   1.282       .  A
C1644      C1680   1.481       .  S
O1645     Zr1648   2.482       .  S
O1645      C1647   1.296       .  A
O1646     Zr1654   2.398       .  S
O1646      C1647   1.280       .  A
C1647      C1736   1.475       .  S
Zr1648     O1649   2.435       .  S
Zr1648     O1650   2.434       .  S
Zr1648     O1656   2.380       .  S
Zr1648     O1657   2.384       .  S
Zr1648     O1660   2.382       .  S
Zr1648     O2430   2.379       .  S
O1649      H1669   0.990       .  S
O1649      H1674   0.990       .  S
O1650      H1670   0.990       .  S
Zr1651     O1652   2.434       .  S
Zr1651     O1653   2.436       .  S
Zr1651     O1657   2.372       .  S
Zr1651     O1656   2.371       .  S
Zr1651     O1661   2.372       .  S
Zr1651     O1659   2.370       .  S
O1652      H1668   0.990       .  S
O1653      H1667   0.990       .  S
O1653      H1677   0.990       .  S
Zr1654     O2389   2.413       .  S
Zr1654     O2395   2.409       .  S
Zr1654     O2406   2.381       .  S
Zr1654     O1657   2.382       .  S
Zr1654     O1659   2.382       .  S
Zr1654     O1660   2.391       .  S
Zr1655     O2392   2.404       .  S
Zr1655     O2398   2.405       .  S
Zr1655     O2407   2.383       .  S
Zr1655     O1656   2.386       .  S
Zr1655     O2430   2.385       .  S
Zr1655     O1661   2.381       .  S
O1656      H1664   0.966       .  S
O1658     Zr2420   2.379   1_545  S
O1658     Zr2427   2.385       .  S
O1659     Zr2403   2.369       .  S
O1659      H1663   0.966       .  S
O1660     Zr2400   2.378       .  S
O1660      H2437   0.966       .  S
O1661     Zr2403   2.371       .  S
H1665      O2432   0.966       .  S
C1678      C2286   1.492       .  S
C1678      C1679   1.396       .  A
C1678      C1683   1.403       .  A
C1679      C1680   1.399       .  A
C1679      H1684   1.085       .  S
C1680      C1681   1.414       .  A
C1681      C1682   1.414       .  A
C1681      H1685   1.084       .  S
C1682      C1683   1.417       .  A
C1683      H1686   1.083       .  S
C1687      C2270   1.488       .  S
C1687      C1688   1.403       .  A
C1687      C1692   1.397       .  A
C1688      C1689   1.414       .  A
C1688      H1693   1.085       .  S
C1689      C1690   1.412       .  A
C1690      C1691   1.416       .  A
C1690      H1694   1.084       .  S
C1691      C1692   1.405       .  A
C1692      H1695   1.084       .  S
C1696      C2257   1.475       .  S
C1696      C1697   1.399       .  A
C1696      C1701   1.394       .  A
C1697      C1698   1.411       .  A
C1697      H1702   1.085       .  S
C1698      C1699   1.413       .  A
C1699      C1700   1.416       .  A
C1699      H1703   1.083       .  S
C1700      C1701   1.397       .  A
C1701      H1704   1.085       .  S
C1705      C2241   1.494       .  S
C1705      C1706   1.408       .  A
C1705      C1710   1.404       .  A
C1706      C1707   1.400       .  A
C1706      H1711   1.084       .  S
C1707      C1708   1.400       .  A
C1708      C1709   1.408       .  A
C1708      H1712   1.083       .  S
C1709      C1710   1.401       .  A
C1710      H1713   1.079       .  S
C1714      C2222   1.502       .  S
C1714      C1715   1.406       .  A
C1714      C1719   1.412       .  A
C1715      C1716   1.400       .  A
C1715      H1720   1.079       .  S
C1716      C1717   1.404       .  A
C1717      C1718   1.411       .  A
C1717      H1721   1.084       .  S
C1718      C1719   1.405       .  A
C1719      H1722   1.083       .  S
C1723      C2209   1.488       .  S
C1723      C1724   1.406       .  A
C1723      C1728   1.401       .  A
C1724      C1725   1.404       .  A
C1724      H1729   1.084       .  S
C1725      C1726   1.405       .  A
C1726      C1727   1.409       .  A
C1726      H1730   1.083       .  S
C1727      C1728   1.400       .  A
C1728      H1731   1.081       .  S
C1732      C2190   1.479       .  S
C1732      C1733   1.407       .  A
C1732      C1737   1.401       .  A
C1733      C1734   1.404       .  A
C1733      H1738   1.084       .  S
C1734      C1735   1.408       .  A
C1735      C1736   1.413       .  A
C1735      H1739   1.084       .  S
C1736      C1737   1.401       .  A
C1737      H1740   1.084       .  S
O1741     Zr1753   2.470       .  S
O1741      C1743   1.293       .  A
O1742     Zr1779   2.413       .  S
O1742      C1743   1.284       .  A
C1743      C2273   1.494       .  S
O1744     Zr1756   2.463   1_554  S
O1744      C1746   1.290       .  A
O1745     Zr1780   2.388       .  S
O1745      C1746   1.281       .  A
C1746      C2174   1.487       .  S
O1747     Zr1756   2.446       .  S
O1747      C1749   1.287       .  A
O1748     Zr1779   2.408       .  S
O1748      C1749   1.286       .  A
C1749      C2302   1.494       .  S
O1750     Zr1753   2.460   1_554  S
O1750      C1752   1.291       .  A
O1751     Zr1780   2.408       .  S
O1751      C1752   1.283       .  A
C1752      C2142   1.482       .  S
Zr1753     O1754   2.434       .  S
Zr1753     O1755   2.435       .  S
Zr1753     O1759   2.372       .  S
Zr1753     O1760   2.379   1_556  S
Zr1753     O1783   2.382   1_556  S
Zr1753     O1785   2.377       .  S
O1754      H1797   0.990       .  S
O1755      H1796   0.990       .  S
O1755      H1800   0.990       .  S
Zr1756     O1757   2.435       .  S
Zr1756     O1758   2.435       .  S
Zr1756     O1760   2.374   1_556  S
Zr1756     O1759   2.379       .  S
Zr1756     O1784   2.384       .  S
Zr1756     O1786   2.375   1_556  S
O1757      H1798   0.990   1_556  S
O1757      H1801   0.990       .  S
O1758      H1791   0.990       .  S
O1759     Zr1779   2.368       .  S
O1760     Zr1780   2.371       .  S
O1760      H1787   0.966       .  S
O1761     Zr1773   2.472   1_554  S
O1761      C1763   1.292       .  A
O1762     Zr1780   2.383       .  S
O1762      C1763   1.280       .  A
C1763      C2126   1.499       .  S
O1764     Zr1776   2.452       .  S
O1764      C1766   1.290       .  A
O1765     Zr1779   2.401       .  S
O1765      C1766   1.280       .  A
C1766      C2254   1.497       .  S
O1767     Zr1776   2.457   1_554  S
O1767      C1769   1.289       .  A
O1768     Zr1780   2.409       .  S
O1768      C1769   1.284       .  A
C1769      C2158   1.478       .  S
O1770     Zr1773   2.461       .  S
O1770      C1772   1.292       .  A
O1771     Zr1779   2.406       .  S
O1771      C1772   1.282       .  A
C1772      C2289   1.493       .  S
Zr1773     O1774   2.435       .  S
Zr1773     O1775   2.433       .  S
Zr1773     O1781   2.373   1_556  S
Zr1773     O1782   2.377       .  S
Zr1773     O1785   2.384       .  S
Zr1773     O1783   2.378   1_556  S
O1774      H1794   0.990   1_556  S
O1774      H1799   0.990       .  S
O1775      H1795   0.990   1_556  S
Zr1776     O1777   2.434       .  S
Zr1776     O1778   2.434       .  S
Zr1776     O1782   2.376       .  S
Zr1776     O1781   2.373   1_556  S
Zr1776     O1786   2.378   1_556  S
Zr1776     O1784   2.378       .  S
O1777      H1793   0.990       .  S
O1778      H1792   0.990   1_556  S
O1778      H1802   0.990       .  S
Zr1779     O1782   2.371       .  S
Zr1779     O1784   2.378       .  S
Zr1779     O1785   2.375       .  S
Zr1780     O1781   2.372       .  S
Zr1780     O1783   2.371       .  S
Zr1780     O1786   2.368       .  S
O1781      H1789   0.966       .  S
O1784      H1788   0.966       .  S
O1785      H1790   0.966       .  S
C1803      C2129   1.472       .  S
C1803      C1804   1.399       .  A
C1803      C1808   1.396       .  A
C1804      C1805   1.409       .  A
C1804      H1809   1.085       .  S
C1805      C1832   1.465       .  S
C1805      C1806   1.400       .  A
C1806      C1807   1.400       .  A
C1806      H1810   1.084       .  S
C1807      C1894   1.452       .  S
C1807      C1808   1.397       .  A
C1808      H1811   1.085       .  S
C1812      C2177   1.474       .  S
C1812      C1813   1.397       .  A
C1812      C1817   1.397       .  A
C1813      C1814   1.400       .  A
C1813      H1818   1.084       .  S
C1814      C1914   1.460       .  S
C1814      C1815   1.406       .  A
C1815      C1816   1.403       .  A
C1815      H1819   1.083       .  S
C1816      C1852   1.466       .  S
C1816      C1817   1.403       .  A
C1817      H1820   1.085       .  S
C1821      C2145   1.486       .  S
C1821      C1822   1.402       .  A
C1821      C1826   1.401       .  A
C1822      C1823   1.407       .  A
C1822      H1827   1.085       .  S
C1823      C1841   1.468       .  S
C1823      C1824   1.400       .  A
C1824      C1825   1.403       .  A
C1824      H1828   1.084       .  S
C1825      C1903   1.457       .  S
C1825      C1826   1.401       .  A
C1826      H1829   1.084       .  S
O1830     Zr1842   2.396       .  S
O1830      C1832   1.280       .  A
O1831     Zr2640   2.450       .  S
O1831      C1832   1.291       .  A
O1833     Zr1845   2.411       .  S
O1833      C1835   1.281       .  A
O1834     Zr2641   2.459       .  S
O1834      C1835   1.294       .  A
C1835      C1994   1.464       .  S
O1836     Zr1845   2.403       .  S
O1836      C1838   1.280       .  A
O1837     Zr2640   2.441       .  S
O1837      C1838   1.290       .  A
C1838      C1983   1.454       .  S
O1839     Zr1842   2.388       .  S
O1839      C1841   1.279       .  A
O1840     Zr2641   2.462       .  S
O1840      C1841   1.293       .  A
Zr1842     O1843   2.434       .  S
Zr1842     O1844   2.437       .  S
Zr1842     O1848   2.358       .  S
Zr1842     O1849   2.360       .  S
Zr1842     O2644   2.358       .  S
Zr1842     O2646   2.356       .  S
O1843      H1886   0.990       .  S
O1844      H1885   0.990       .  S
O1844      H1889   0.990       .  S
Zr1845     O1846   2.437       .  S
Zr1845     O1847   2.436       .  S
Zr1845     O1849   2.365       .  S
Zr1845     O1848   2.368       .  S
Zr1845     O2645   2.368       .  S
Zr1845     O2647   2.371       .  S
O1846      H1887   0.990       .  S
O1846      H1890   0.990       .  S
O1847      H1880   0.990       .  S
O1848     Zr2640   2.383       .  S
O1849     Zr2641   2.391       .  S
O1849      H1876   0.966       .  S
O1850     Zr1862   2.405       .  S
O1850      C1852   1.282       .  A
O1851     Zr1869   2.450       .  S
O1851      C1852   1.291       .  A
O1853     Zr1865   2.403       .  S
O1853      C1855   1.280       .  A
O1854     Zr1868   2.438       .  S
O1854      C1855   1.289       .  A
C1855      C1967   1.455       .  S
O1856     Zr1865   2.405       .  S
O1856      C1858   1.280       .  A
O1857     Zr1869   2.461       .  S
O1857      C1858   1.294       .  A
C1858      C1974   1.463       .  S
O1859     Zr1862   2.412       .  S
O1859      C1861   1.284       .  A
O1860     Zr1868   2.452       .  S
O1860      C1861   1.291       .  A
C1861      C1956   1.469       .  S
Zr1862     O1863   2.436       .  S
Zr1862     O1864   2.432       .  S
Zr1862     O1870   2.355       .  S
Zr1862     O1871   2.359       .  S
Zr1862     O1874   2.354       .  S
Zr1862     O1872   2.359       .  S
O1863      H1883   0.990       .  S
O1863      H1888   0.990       .  S
O1864      H1884   0.990       .  S
Zr1865     O1866   2.433       .  S
Zr1865     O1867   2.435       .  S
Zr1865     O1871   2.367       .  S
Zr1865     O1870   2.366       .  S
Zr1865     O1875   2.365       .  S
Zr1865     O1873   2.359       .  S
O1866      H1882   0.990       .  S
O1867      H1881   0.990       .  S
O1867      H1891   0.990       .  S
Zr1868     O2603   2.450   1_545  S
Zr1868     O2609   2.441   1_545  S
Zr1868     O2620   2.383   1_545  S
Zr1868     O1871   2.383       .  S
Zr1868     O1873   2.398       .  S
Zr1868     O1874   2.385       .  S
Zr1869     O2606   2.459   1_545  S
Zr1869     O2612   2.462   1_545  S
Zr1869     O2621   2.391   1_545  S
Zr1869     O1870   2.392       .  S
Zr1869     O1872   2.389       .  S
Zr1869     O1875   2.395       .  S
O1870      H1878   0.965       .  S
O1872     Zr2614   2.358   1_545  S
O1873     Zr2617   2.368   1_545  S
O1873      H1877   0.966       .  S
O1874     Zr2614   2.356   1_545  S
O1874      H1879   0.966       .  S
O1875     Zr2617   2.371   1_545  S
O1892     Zr1904   2.394       .  S
O1892      C1894   1.278       .  A
O1893     Zr1930   2.443       .  S
O1893      C1894   1.291       .  A
O1895      C1897   1.279       .  A
O1896     Zr1931   2.471       .  S
O1896      C1897   1.295       .  A
C1897      C1992   1.475       .  S
O1898     Zr1907   2.395       .  S
O1898      C1900   1.280       .  A
O1899     Zr1930   2.451       .  S
O1899      C1900   1.291       .  A
C1900      C1985   1.464       .  S
O1901      C1903   1.278       .  A
O1902     Zr1931   2.452       .  S
O1902      C1903   1.292       .  A
Zr1904     O1905   2.434       .  S
Zr1904     O1910   2.366       .  S
Zr1904     O1936   2.366       .  S
O1905      H1948   0.990       .  S
Zr1907     O1908   2.436       .  S
Zr1907     O1910   2.360       .  S
Zr1907     O1935   2.355       .  S
O1908      H1952   0.990       .  S
O1910     Zr1930   2.381       .  S
O1911     Zr1931   2.386       .  S
O1911      H1938   0.966       .  S
O1912     Zr1924   2.411       .  S
O1912      C1914   1.281       .  A
O1913     Zr1931   2.451       .  S
O1913      C1914   1.292       .  A
O1915      C1917   1.284       .  A
O1916     Zr1930   2.435       .  S
O1916      C1917   1.288       .  A
C1917      C1965   1.458       .  S
O1918     Zr1927   2.411       .  S
O1918      C1920   1.282       .  A
O1919     Zr1931   2.446       .  S
O1919      C1920   1.290       .  A
C1920      C1976   1.466       .  S
O1921      C1923   1.283       .  A
O1922     Zr1930   2.451       .  S
O1922      C1923   1.292       .  A
C1923      C1958   1.468       .  S
Zr1924     O1925   2.438       .  S
Zr1924     O1926   2.435       .  S
Zr1924     O1932   2.371       .  S
Zr1924     O1934   2.371       .  S
O1925      H1945   0.990       .  S
O1925      H1950   0.990       .  S
O1926      H1946   0.990       .  S
Zr1927     O1928   2.434       .  S
Zr1927     O1929   2.432       .  S
Zr1927     O1932   2.354       .  S
Zr1927     O1937   2.359       .  S
O1929      H1943   0.990       .  S
O1929      H1953   0.990       .  S
Zr1930     O1933   2.384       .  S
Zr1930     O1935   2.390       .  S
Zr1930     O1936   2.393       .  S
Zr1931     O1932   2.396       .  S
Zr1931     O1934   2.396       .  S
Zr1931     O1937   2.385       .  S
O1932      H1940   0.965       .  S
O1935      H1939   0.966       .  S
O1936      H1941   0.966       .  S
C1954      C2161   1.496       .  S
C1954      C1955   1.402       .  A
C1954      C1959   1.408       .  A
C1955      C1956   1.402       .  A
C1955      H1960   1.080       .  S
C1956      C1957   1.401       .  A
C1957      C1958   1.405       .  A
C1957      H1961   1.082       .  S
C1958      C1959   1.406       .  A
C1959      H1962   1.084       .  S
C1963      C2110   1.487       .  S
C1963      C1964   1.400       .  A
C1963      C1968   1.403       .  A
C1964      C1965   1.400       .  A
C1964      H1969   1.080       .  S
C1965      C1966   1.398       .  A
C1966      C1967   1.400       .  A
C1966      H1970   1.083       .  S
C1967      C1968   1.399       .  A
C1968      H1971   1.084       .  S
C1972      C2094   1.476       .  S
C1972      C1973   1.401       .  A
C1972      C1977   1.398       .  A
C1973      C1974   1.398       .  A
C1973      H1978   1.085       .  S
C1974      C1975   1.404       .  A
C1975      C1976   1.404       .  A
C1975      H1979   1.083       .  S
C1976      C1977   1.406       .  A
C1977      H1980   1.085       .  S
C1981      C2078   1.493       .  S
C1981      C1982   1.404       .  A
C1981      C1986   1.406       .  A
C1982      C1983   1.400       .  A
C1982      H1987   1.084       .  S
C1983      C1984   1.398       .  A
C1984      C1985   1.397       .  A
C1984      H1988   1.084       .  S
C1985      C1986   1.407       .  A
C1986      H1989   1.084       .  S
C1990      C2065   1.481       .  S
C1990      C1991   1.401       .  A
C1990      C1995   1.400       .  A
C1991      C1992   1.410       .  A
C1991      H1996   1.085       .  S
C1992      C1993   1.404       .  A
C1993      C1994   1.407       .  A
C1993      H1997   1.084       .  S
C1994      C1995   1.402       .  A
C1995      H1998   1.084       .  S
O1999     Zr2011   2.459       .  S
O1999      C2001   1.289       .  A
O2000      C2001   1.283       .  A
C2001      C2225   1.479       .  S
O2002     Zr2014   2.433       .  S
O2002      C2004   1.284       .  A
O2003      C2004   1.283       .  A
C2004      C2113   1.462       .  S
O2005     Zr2014   2.448       .  S
O2005      C2007   1.286       .  A
O2006      C2007   1.279       .  A
C2007      C2238   1.460       .  S
O2008     Zr2011   2.453       .  S
O2008      C2010   1.288       .  A
O2009      C2010   1.284       .  A
C2010      C2081   1.475       .  S
Zr2011     O2012   2.434       .  S
Zr2011     O2013   2.435       .  S
Zr2011     O2789   2.375       .  S
Zr2011     O2790   2.375       .  S
O2012      H2827   0.990       .  S
O2013      H2054   0.990       .  S
O2013      H2058   0.990       .  S
Zr2014     O2015   2.435       .  S
Zr2014     O2016   2.436       .  S
Zr2014     O2018   2.383       .  S
Zr2014     O2017   2.370       .  S
O2015      H2056   0.990       .  S
O2015      H2059   0.990       .  S
O2016      H2049   0.990       .  S
O2017     Zr2783   2.375   1_545  S
O2018     Zr2783   2.375   1_545  S
O2018      H2045   0.966       .  S
O2019     Zr2031   2.478       .  S
O2019      C2021   1.293       .  A
O2020     Zr2810   2.402       .  S
O2020      C2021   1.284       .  A
C2021      C2062   1.507       .  S
O2022     Zr2034   2.460       .  S
O2022      C2024   1.289       .  A
O2023     Zr2037   2.386       .  S
O2023      C2024   1.279       .  A
C2024      C2206   1.465       .  S
O2025     Zr2034   2.466       .  S
O2025      C2027   1.291       .  A
O2026     Zr2038   2.397       .  S
O2026      C2027   1.280       .  A
C2027      C2097   1.493       .  S
O2028     Zr2031   2.493       .  S
O2028      C2030   1.296       .  A
O2029     Zr2809   2.372       .  S
O2029      C2030   1.278       .  A
C2030      C2193   1.505       .  S
Zr2031     O2032   2.435       .  S
Zr2031     O2033   2.433       .  S
Zr2031     O2811   2.381       .  S
Zr2031     O2812   2.374       .  S
Zr2031     O2043   2.376       .  S
Zr2031     O2041   2.386       .  S
O2032      H2052   0.990       .  S
O2032      H2057   0.990       .  S
O2033      H2053   0.990       .  S
Zr2034     O2035   2.434       .  S
Zr2034     O2036   2.434       .  S
Zr2034     O2040   2.377       .  S
Zr2034     O2039   2.378       .  S
Zr2034     O2044   2.379       .  S
Zr2034     O2042   2.384       .  S
O2035      H2051   0.990       .  S
O2036      H2050   0.990       .  S
O2036      H2060   0.990       .  S
Zr2037     O2801   2.372   1_545  S
Zr2037     O2040   2.368       .  S
Zr2037     O2042   2.367       .  S
Zr2037     O2815   2.372   1_545  S
Zr2038     O2792   2.402   1_545  S
Zr2038     O2039   2.378       .  S
Zr2038     O2813   2.371   1_545  S
Zr2038     O2044   2.370       .  S
O2039     Zr2803   2.381   1_545  S
O2039      H2047   0.966       .  S
O2040     Zr2803   2.374   1_545  S
O2041     Zr2810   2.371       .  S
O2042      H2046   0.966       .  S
O2043     Zr2809   2.372       .  S
O2043      H2048   0.966       .  S
H2055      O2784   0.990       .  S
C2061      C2062   1.413       .  A
C2061      C2066   1.395       .  A
C2061      H2068   1.081       .  S
C2062      C2063   1.423       .  A
C2063      C2064   1.416       .  A
C2063      C2070   1.506       .  S
C2064      C2065   1.404       .  A
C2064      H2069   1.084       .  S
C2065      C2066   1.406       .  A
C2066      C2067   1.510       .  S
C2067      H2071   1.111       .  S
C2067      H2072   1.110       .  S
C2067      H2073   1.110       .  S
C2070      H2074   1.110       .  S
C2070      H2075   1.110       .  S
C2070      H2076   1.111       .  S
C2077      C2078   1.406       .  A
C2077      C2082   1.398       .  A
C2077      H2084   1.083       .  S
C2078      C2079   1.421       .  A
C2079      C2080   1.407       .  A
C2079      C2086   1.507       .  S
C2080      C2081   1.401       .  A
C2080      H2085   1.084       .  S
C2081      C2082   1.410       .  A
C2082      C2083   1.504       .  S
C2083      H2087   1.111       .  S
C2083      H2089   1.110       .  S
C2086      H2090   1.110       .  S
C2086      H2091   1.108       .  S
C2086      H2092   1.111       .  S
C2093      C2094   1.392       .  A
C2093      C2098   1.390       .  A
C2093      H2100   1.085       .  S
C2094      C2095   1.411       .  A
C2095      C2096   1.413       .  A
C2095      C2102   1.505       .  S
C2096      C2097   1.411       .  A
C2096      H2101   1.084       .  S
C2097      C2098   1.424       .  A
C2098      C2099   1.505       .  S
C2099      H2103   1.111       .  S
C2099      H2104   1.107       .  S
C2099      H2105   1.109       .  S
C2102      H2106   1.110       .  S
C2102      H2107   1.109       .  S
C2102      H2108   1.111       .  S
C2109      C2110   1.408       .  A
C2109      C2114   1.404       .  A
C2109      H2116   1.084       .  S
C2110      C2111   1.422       .  A
C2111      C2112   1.395       .  A
C2111      C2118   1.507       .  S
C2112      C2113   1.393       .  A
C2112      H2117   1.085       .  S
C2113      C2114   1.408       .  A
C2114      C2115   1.506       .  S
C2115      H2119   1.111       .  S
C2115      H2120   1.111       .  S
C2115      H2121   1.109       .  S
C2118      H2122   1.110       .  S
C2118      H2123   1.106       .  S
C2118      H2124   1.111       .  S
C2125      C2126   1.412       .  A
C2125      C2130   1.391       .  A
C2125      H2132   1.082       .  S
C2126      C2127   1.422       .  A
C2127      C2128   1.413       .  A
C2127      C2134   1.506       .  S
C2128      C2129   1.402       .  A
C2128      H2133   1.084       .  S
C2129      C2130   1.404       .  A
C2130      C2131   1.512       .  S
C2131      H2135   1.111       .  S
C2131      H2136   1.110       .  S
C2131      H2137   1.110       .  S
C2134      H2138   1.110       .  S
C2134      H2139   1.110       .  S
C2134      H2140   1.111       .  S
C2141      C2142   1.405       .  A
C2141      C2146   1.408       .  A
C2141      H2148   1.084       .  S
C2142      C2143   1.415       .  A
C2143      C2144   1.398       .  A
C2143      C2150   1.505       .  S
C2144      C2145   1.402       .  A
C2144      H2149   1.085       .  S
C2145      C2146   1.417       .  A
C2146      C2147   1.506       .  S
C2147      H2151   1.110       .  S
C2147      H2152   1.110       .  S
C2147      H2153   1.108       .  S
C2150      H2154   1.105       .  S
C2150      H2155   1.110       .  S
C2150      H2156   1.111       .  S
C2157      C2158   1.397       .  A
C2157      C2162   1.399       .  A
C2157      H2164   1.084       .  S
C2158      C2159   1.412       .  A
C2159      C2160   1.410       .  A
C2159      C2166   1.505       .  S
C2160      C2161   1.409       .  A
C2160      H2165   1.084       .  S
C2161      C2162   1.423       .  A
C2162      C2163   1.508       .  S
C2163      H2167   1.108       .  S
C2163      H2168   1.104       .  S
C2163      H2169   1.110       .  S
C2166      H2170   1.110       .  S
C2166      H2171   1.111       .  S
C2166      H2172   1.111       .  S
C2173      C2174   1.407       .  A
C2173      C2178   1.394       .  A
C2173      H2180   1.084       .  S
C2174      C2175   1.419       .  A
C2175      C2176   1.410       .  A
C2175      C2182   1.505       .  S
C2176      C2177   1.402       .  A
C2176      H2181   1.084       .  S
C2177      C2178   1.409       .  A
C2178      C2179   1.511       .  S
C2179      H2183   1.110       .  S
C2179      H2184   1.110       .  S
C2179      H2185   1.109       .  S
C2182      H2186   1.110       .  S
C2182      H2187   1.110       .  S
C2182      H2188   1.111       .  S
C2189      C2190   1.405       .  A
C2189      C2194   1.415       .  A
C2189      H2196   1.084       .  S
C2190      C2191   1.404       .  A
C2191      C2192   1.395       .  A
C2191      C2198   1.513       .  S
C2192      C2193   1.417       .  A
C2192      H2197   1.083       .  S
C2193      C2194   1.421       .  A
C2194      C2195   1.505       .  S
C2195      H2199   1.111       .  S
C2195      H2200   1.110       .  S
C2195      H2201   1.110       .  S
C2198      H2202   1.108       .  S
C2198      H2203   1.109       .  S
C2198      H2204   1.111       .  S
C2205      C2206   1.400       .  A
C2205      C2210   1.398       .  A
C2205      H2212   1.085       .  S
C2206      C2207   1.409       .  A
C2207      C2208   1.405       .  A
C2207      C2214   1.506       .  S
C2208      C2209   1.409       .  A
C2208      H2213   1.084       .  S
C2209      C2210   1.420       .  A
C2210      C2211   1.510       .  S
C2211      H2215   1.110       .  S
C2211      H2216   1.107       .  S
C2211      H2217   1.108       .  S
C2214      H2218   1.110       .  S
C2214      H2219   1.109       .  S
C2214      H2220   1.111       .  S
C2221      C2222   1.414       .  A
C2221      C2226   1.411       .  A
C2221      H2228   1.083       .  S
C2222      C2223   1.424       .  A
C2223      C2224   1.397       .  A
C2223      C2230   1.510       .  S
C2224      C2225   1.398       .  A
C2224      H2229   1.085       .  S
C2225      C2226   1.410       .  A
C2226      C2227   1.505       .  S
C2227      H2231   1.111       .  S
C2227      H3004   1.111       .  S
C2227      H2233   1.110       .  S
C2230      H2234   1.110       .  S
C2230      H2235   1.106       .  S
C2230      H2236   1.106       .  S
H2232      C2999   1.111       .  S
C2237      C2238   1.397       .  A
C2237      C2242   1.399       .  A
C2237      H2244   1.085       .  S
C2238      C2239   1.405       .  A
C2239      C2240   1.403       .  A
C2239      C2246   1.507       .  S
C2240      C2241   1.413       .  A
C2240      H2245   1.084       .  S
C2241      C2242   1.423       .  A
C2242      C2243   1.511       .  S
C2243      H2247   1.111       .  S
C2243      H2248   1.110       .  S
C2243      H2249   1.107       .  S
C2246      H2251   1.110       .  S
C2246      H2252   1.111       .  S
C2253      C2254   1.414       .  A
C2253      C2258   1.408       .  A
C2253      H2260   1.083       .  S
C2254      C2255   1.428       .  A
C2255      C2256   1.396       .  A
C2255      C2262   1.511       .  S
C2256      C2257   1.396       .  A
C2256      H2261   1.085       .  S
C2257      C2258   1.406       .  A
C2258      C2259   1.505       .  S
C2259      H2263   1.111       .  S
C2259      H2264   1.110       .  S
C2259      H2265   1.110       .  S
C2262      H2266   1.108       .  S
C2262      H2267   1.109       .  S
C2262      H2268   1.111       .  S
C2269      C2270   1.400       .  A
C2269      C2274   1.403       .  A
C2269      H2276   1.085       .  S
C2270      C2271   1.413       .  A
C2271      C2272   1.411       .  A
C2271      C2278   1.505       .  S
C2272      C2273   1.408       .  A
C2272      H2277   1.084       .  S
C2273      C2274   1.421       .  A
C2274      C2275   1.507       .  S
C2275      H2279   1.111       .  S
C2275      H2280   1.109       .  S
C2275      H2281   1.109       .  S
C2278      H2282   1.109       .  S
C2278      H2283   1.110       .  S
C2278      H2284   1.111       .  S
C2285      C2286   1.404       .  A
C2285      C2290   1.399       .  A
C2285      H2292   1.085       .  S
C2286      C2287   1.413       .  A
C2287      C2288   1.411       .  A
C2287      C2294   1.506       .  S
C2288      C2289   1.410       .  A
C2288      H2293   1.084       .  S
C2289      C2290   1.421       .  A
C2290      C2291   1.513       .  S
C2291      H2295   1.111       .  S
C2291      H2296   1.108       .  S
C2291      H2297   1.111       .  S
C2294      H2298   1.108       .  S
C2294      H2299   1.110       .  S
C2294      H2300   1.111       .  S
C2301      C2302   1.406       .  A
C2301      C2306   1.393       .  A
C2301      H2308   1.081       .  S
C2302      C2303   1.423       .  A
C2303      C2304   1.411       .  A
C2303      C2310   1.507       .  S
C2304      C2305   1.401       .  A
C2304      H2309   1.084       .  S
C2305      C2306   1.412       .  A
C2306      C2307   1.512       .  S
C2307      H2311   1.111       .  S
C2307      H2312   1.108       .  S
C2307      H2313   1.110       .  S
C2310      H2314   1.110       .  S
C2310      H2315   1.110       .  S
C2310      H2316   1.111       .  S
O2317     Zr2329   2.413       .  S
O2317      C2319   1.284       .  A
O2318      C2319   1.295       .  A
C2319      C2381   1.486       .  S
O2320     Zr2332   2.418       .  S
O2320      C2322   1.282       .  A
O2321     Zr2356   2.483       .  S
O2321      C2322   1.298       .  A
C2322      C2506   1.480       .  S
O2323     Zr2332   2.415       .  S
O2323      C2325   1.283       .  A
O2324      C2325   1.293       .  A
C2325      C2497   1.473       .  S
O2326     Zr2329   2.406       .  S
O2326      C2328   1.282       .  A
O2327     Zr2356   2.490       .  S
O2327      C2328   1.299       .  A
C2328      C2461   1.488       .  S
Zr2329     O2330   2.434       .  S
Zr2329     O2331   2.436       .  S
Zr2329     O2335   2.363       .  S
Zr2329     O2336   2.366       .  S
Zr2329     O2359   2.366       .  S
O2330      H2373   0.990       .  S
O2331      H2372   0.990       .  S
O2331      H2376   0.990       .  S
Zr2332     O2333   2.436       .  S
Zr2332     O2334   2.436       .  S
Zr2332     O2336   2.363       .  S
Zr2332     O2335   2.365       .  S
Zr2332     O2362   2.369       .  S
O2333      H2374   0.990       .  S
O2333      H2377   0.990       .  S
O2334      H2367   0.990       .  S
O2336     Zr2356   2.397       .  S
O2336      H2363   0.965       .  S
O2337     Zr2349   2.415       .  S
O2337      C2339   1.284       .  A
O2338      C2339   1.298       .  A
C2339      C2454   1.490       .  S
O2340     Zr2352   2.409       .  S
O2340      C2342   1.282       .  A
O2341     Zr2355   2.461       .  S
O2341      C2342   1.293       .  A
C2342      C2479   1.469       .  S
O2343     Zr2352   2.413       .  S
O2343      C2345   1.282       .  A
O2344      C2345   1.298       .  A
C2345      C2488   1.478       .  S
O2346     Zr2349   2.416       .  S
O2346      C2348   1.284       .  A
O2347     Zr2355   2.472       .  S
O2347      C2348   1.295       .  A
C2348      C2470   1.485       .  S
Zr2349     O2350   2.438       .  S
Zr2349     O2351   2.435       .  S
Zr2349     O2357   2.365       .  S
Zr2349     O2358   2.364       .  S
Zr2349     O2361   2.366       .  S
O2350      H2370   0.990       .  S
O2350      H2375   0.990       .  S
O2351      H2371   0.990       .  S
Zr2352     O2353   2.434       .  S
Zr2352     O2354   2.435       .  S
Zr2352     O2358   2.364       .  S
Zr2352     O2357   2.362       .  S
Zr2352     O2360   2.364       .  S
O2353      H2369   0.990       .  S
O2354      H2368   0.990       .  S
O2354      H2378   0.990       .  S
Zr2355     O2358   2.391       .  S
Zr2355     O2360   2.402       .  S
Zr2355     O2361   2.400       .  S
Zr2356     O2359   2.404       .  S
Zr2356     O2362   2.399       .  S
O2357      H2365   0.965       .  S
O2360      H2364   0.966       .  S
O2361      H2366   0.966       .  S
C2379      C3077   1.479       .  S
C2379      C2380   1.399       .  A
C2379      C2384   1.391       .  A
C2380      C2381   1.413       .  A
C2380      H2385   1.084       .  S
C2381      C2382   1.414       .  A
C2382      C2383   1.415       .  A
C2382      H2386   1.082       .  S
C2383      C2396   1.479       .  S
C2383      C2384   1.396       .  A
C2384      H2387   1.085       .  S
O2388     Zr2400   2.452       .  S
O2388      C2390   1.290       .  A
O2389      C2390   1.283       .  A
C2390      C2499   1.471       .  S
O2391     Zr2403   2.466       .  S
O2391      C2393   1.295       .  A
O2392      C2393   1.280       .  A
C2393      C2472   1.480       .  S
O2394     Zr2403   2.463       .  S
O2394      C2396   1.295       .  A
O2395      C2396   1.280       .  A
O2397     Zr2400   2.457       .  S
O2397      C2399   1.291       .  A
O2398      C2399   1.282       .  A
C2399      C2481   1.471       .  S
Zr2400     O2401   2.434       .  S
Zr2400     O2402   2.436       .  S
Zr2400     O2406   2.376       .  S
Zr2400     O2407   2.375       .  S
Zr2400     O2430   2.377       .  S
O2401      H2444   0.990       .  S
O2402      H2443   0.990       .  S
O2402      H2447   0.990       .  S
Zr2403     O2404   2.435       .  S
Zr2403     O2405   2.435       .  S
Zr2403     O2407   2.368       .  S
Zr2403     O2406   2.370       .  S
O2404      H2445   0.990       .  S
O2404      H2448   0.990       .  S
O2405      H2438   0.990       .  S
O2407      H2434   0.966       .  S
O2408     Zr2420   2.491       .  S
O2408      C2410   1.297       .  A
O2409     Zr2427   2.396   1_565  S
O2409      C2410   1.279       .  A
C2410      C2490   1.477       .  S
O2411     Zr2423   2.456       .  S
O2411      C2413   1.292       .  A
O2412     Zr2426   2.425       .  S
O2412      C2413   1.284       .  A
C2413      C2463   1.484       .  S
O2414     Zr2423   2.453       .  S
O2414      C2416   1.292       .  A
O2415     Zr2427   2.419   1_565  S
O2415      C2416   1.282       .  A
C2416      C2452   1.481       .  S
O2417     Zr2420   2.482       .  S
O2417      C2419   1.296       .  A
O2418     Zr2426   2.398       .  S
O2418      C2419   1.280       .  A
C2419      C2508   1.475       .  S
Zr2420     O2421   2.435       .  S
Zr2420     O2422   2.434       .  S
Zr2420     O2428   2.380       .  S
Zr2420     O2429   2.384       .  S
Zr2420     O2432   2.382       .  S
O2421      H2441   0.990       .  S
O2421      H2446   0.990       .  S
O2422      H2442   0.990       .  S
Zr2423     O2424   2.434       .  S
Zr2423     O2425   2.436       .  S
Zr2423     O2429   2.372       .  S
Zr2423     O2428   2.371       .  S
Zr2423     O2433   2.372       .  S
Zr2423     O2431   2.370       .  S
O2424      H2440   0.990       .  S
O2425      H2439   0.990       .  S
O2425      H2449   0.990       .  S
Zr2426     O2429   2.382       .  S
Zr2426     O2431   2.382       .  S
Zr2426     O2432   2.391       .  S
Zr2427     O2428   2.386   1_545  S
Zr2427     O2433   2.381   1_545  S
O2428      H2436   0.966       .  S
O2431      H2435   0.966       .  S
C2450      C3058   1.492       .  S
C2450      C2451   1.396       .  A
C2450      C2455   1.403       .  A
C2451      C2452   1.399       .  A
C2451      H2456   1.085       .  S
C2452      C2453   1.414       .  A
C2453      C2454   1.414       .  A
C2453      H2457   1.084       .  S
C2454      C2455   1.417       .  A
C2455      H2458   1.083       .  S
C2459      C3042   1.488       .  S
C2459      C2460   1.403       .  A
C2459      C2464   1.397       .  A
C2460      C2461   1.414       .  A
C2460      H2465   1.085       .  S
C2461      C2462   1.412       .  A
C2462      C2463   1.416       .  A
C2462      H2466   1.084       .  S
C2463      C2464   1.405       .  A
C2464      H2467   1.084       .  S
C2468      C3029   1.475       .  S
C2468      C2469   1.399       .  A
C2468      C2473   1.394       .  A
C2469      C2470   1.411       .  A
C2469      H2474   1.085       .  S
C2470      C2471   1.413       .  A
C2471      C2472   1.416       .  A
C2471      H2475   1.083       .  S
C2472      C2473   1.397       .  A
C2473      H2476   1.085       .  S
C2477      C3013   1.494       .  S
C2477      C2478   1.408       .  A
C2477      C2482   1.404       .  A
C2478      C2479   1.400       .  A
C2478      H2483   1.084       .  S
C2479      C2480   1.400       .  A
C2480      C2481   1.408       .  A
C2480      H2484   1.083       .  S
C2481      C2482   1.401       .  A
C2482      H2485   1.079       .  S
C2486      C2994   1.502       .  S
C2486      C2487   1.406       .  A
C2486      C2491   1.412       .  A
C2487      C2488   1.400       .  A
C2487      H2492   1.079       .  S
C2488      C2489   1.404       .  A
C2489      C2490   1.411       .  A
C2489      H2493   1.084       .  S
C2490      C2491   1.405       .  A
C2491      H2494   1.083       .  S
C2495      C2981   1.488       .  S
C2495      C2496   1.406       .  A
C2495      C2500   1.401       .  A
C2496      C2497   1.404       .  A
C2496      H2501   1.084       .  S
C2497      C2498   1.405       .  A
C2498      C2499   1.409       .  A
C2498      H2502   1.083       .  S
C2499      C2500   1.400       .  A
C2500      H2503   1.081       .  S
C2504      C2962   1.479       .  S
C2504      C2505   1.407       .  A
C2504      C2509   1.401       .  A
C2505      C2506   1.404       .  A
C2505      H2510   1.084       .  S
C2506      C2507   1.408       .  A
C2507      C2508   1.413       .  A
C2507      H2511   1.084       .  S
C2508      C2509   1.401       .  A
C2509      H2512   1.084       .  S
O2513     Zr2525   2.470       .  S
O2513      C2515   1.293       .  A
O2514     Zr2551   2.413       .  S
O2514      C2515   1.284       .  A
C2515      C3045   1.494       .  S
O2516     Zr2528   2.463   1_554  S
O2516      C2518   1.290       .  A
O2517     Zr2552   2.388       .  S
O2517      C2518   1.281       .  A
C2518      C2946   1.487       .  S
O2519     Zr2528   2.446       .  S
O2519      C2521   1.287       .  A
O2520     Zr2551   2.408       .  S
O2520      C2521   1.286       .  A
C2521      C3074   1.494       .  S
O2522     Zr2525   2.460   1_554  S
O2522      C2524   1.291       .  A
O2523     Zr2552   2.408       .  S
O2523      C2524   1.283       .  A
C2524      C2914   1.482       .  S
Zr2525     O2526   2.434       .  S
Zr2525     O2527   2.435       .  S
Zr2525     O2531   2.372       .  S
Zr2525     O2532   2.379   1_556  S
Zr2525     O2555   2.382   1_556  S
Zr2525     O2557   2.377       .  S
O2526      H2569   0.990       .  S
O2527      H2568   0.990       .  S
O2527      H2572   0.990       .  S
Zr2528     O2529   2.435       .  S
Zr2528     O2530   2.435       .  S
Zr2528     O2532   2.374   1_556  S
Zr2528     O2531   2.379       .  S
Zr2528     O2556   2.384       .  S
Zr2528     O2558   2.375   1_556  S
O2529      H2570   0.990   1_556  S
O2529      H2573   0.990       .  S
O2530      H2563   0.990       .  S
O2531     Zr2551   2.368       .  S
O2532     Zr2552   2.371       .  S
O2532      H2559   0.966       .  S
O2533     Zr2545   2.472   1_554  S
O2533      C2535   1.292       .  A
O2534     Zr2552   2.383       .  S
O2534      C2535   1.280       .  A
C2535      C2898   1.499       .  S
O2536     Zr2548   2.452       .  S
O2536      C2538   1.290       .  A
O2537     Zr2551   2.401       .  S
O2537      C2538   1.280       .  A
C2538      C3026   1.497       .  S
O2539     Zr2548   2.457   1_554  S
O2539      C2541   1.289       .  A
O2540     Zr2552   2.409       .  S
O2540      C2541   1.284       .  A
C2541      C2930   1.478       .  S
O2542     Zr2545   2.461       .  S
O2542      C2544   1.292       .  A
O2543     Zr2551   2.406       .  S
O2543      C2544   1.282       .  A
C2544      C3061   1.493       .  S
Zr2545     O2546   2.435       .  S
Zr2545     O2547   2.433       .  S
Zr2545     O2553   2.373   1_556  S
Zr2545     O2554   2.377       .  S
Zr2545     O2557   2.384       .  S
Zr2545     O2555   2.378   1_556  S
O2546      H2566   0.990   1_556  S
O2546      H2571   0.990       .  S
O2547      H2567   0.990   1_556  S
Zr2548     O2549   2.434       .  S
Zr2548     O2550   2.434       .  S
Zr2548     O2554   2.376       .  S
Zr2548     O2553   2.373   1_556  S
Zr2548     O2558   2.378   1_556  S
Zr2548     O2556   2.378       .  S
O2549      H2565   0.990       .  S
O2550      H2564   0.990   1_556  S
O2550      H2574   0.990       .  S
Zr2551     O2554   2.371       .  S
Zr2551     O2556   2.378       .  S
Zr2551     O2557   2.375       .  S
Zr2552     O2553   2.372       .  S
Zr2552     O2555   2.371       .  S
Zr2552     O2558   2.368       .  S
O2553      H2561   0.966       .  S
O2556      H2560   0.966       .  S
O2557      H2562   0.966       .  S
C2575      C2901   1.472       .  S
C2575      C2576   1.399       .  A
C2575      C2580   1.396       .  A
C2576      C2577   1.409       .  A
C2576      H2581   1.085       .  S
C2577      C2604   1.465       .  S
C2577      C2578   1.400       .  A
C2578      C2579   1.400       .  A
C2578      H2582   1.084       .  S
C2579      C2666   1.452       .  S
C2579      C2580   1.397       .  A
C2580      H2583   1.085       .  S
C2584      C2949   1.474       .  S
C2584      C2585   1.397       .  A
C2584      C2589   1.397       .  A
C2585      C2586   1.400       .  A
C2585      H2590   1.084       .  S
C2586      C2686   1.460       .  S
C2586      C2587   1.406       .  A
C2587      C2588   1.403       .  A
C2587      H2591   1.083       .  S
C2588      C2624   1.466       .  S
C2588      C2589   1.403       .  A
C2589      H2592   1.085       .  S
C2593      C2917   1.486       .  S
C2593      C2594   1.402       .  A
C2593      C2598   1.401       .  A
C2594      C2595   1.407       .  A
C2594      H2599   1.085       .  S
C2595      C2613   1.468       .  S
C2595      C2596   1.400       .  A
C2596      C2597   1.403       .  A
C2596      H2600   1.084       .  S
C2597      C2675   1.457       .  S
C2597      C2598   1.401       .  A
C2598      H2601   1.084       .  S
O2602     Zr2614   2.396       .  S
O2602      C2604   1.280       .  A
O2603      C2604   1.291       .  A
O2605     Zr2617   2.411       .  S
O2605      C2607   1.281       .  A
O2606      C2607   1.294       .  A
C2607      C2766   1.464       .  S
O2608     Zr2617   2.403       .  S
O2608      C2610   1.280       .  A
O2609      C2610   1.290       .  A
C2610      C2755   1.454       .  S
O2611     Zr2614   2.388       .  S
O2611      C2613   1.279       .  A
O2612      C2613   1.293       .  A
Zr2614     O2615   2.434       .  S
Zr2614     O2616   2.437       .  S
Zr2614     O2620   2.358       .  S
Zr2614     O2621   2.360       .  S
O2615      H2658   0.990       .  S
O2616      H2657   0.990       .  S
O2616      H2661   0.990       .  S
Zr2617     O2618   2.437       .  S
Zr2617     O2619   2.436       .  S
Zr2617     O2621   2.365       .  S
Zr2617     O2620   2.368       .  S
O2618      H2659   0.990       .  S
O2618      H2662   0.990       .  S
O2619      H2652   0.990       .  S
O2621      H2648   0.966       .  S
O2622     Zr2634   2.405       .  S
O2622      C2624   1.282       .  A
O2623     Zr2641   2.450       .  S
O2623      C2624   1.291       .  A
O2625     Zr2637   2.403       .  S
O2625      C2627   1.280       .  A
O2626     Zr2640   2.438       .  S
O2626      C2627   1.289       .  A
C2627      C2739   1.455       .  S
O2628     Zr2637   2.405       .  S
O2628      C2630   1.280       .  A
O2629     Zr2641   2.461       .  S
O2629      C2630   1.294       .  A
C2630      C2746   1.463       .  S
O2631     Zr2634   2.412       .  S
O2631      C2633   1.284       .  A
O2632     Zr2640   2.452       .  S
O2632      C2633   1.291       .  A
C2633      C2728   1.469       .  S
Zr2634     O2635   2.436       .  S
Zr2634     O2636   2.432       .  S
Zr2634     O2642   2.355       .  S
Zr2634     O2643   2.359       .  S
Zr2634     O2646   2.354       .  S
Zr2634     O2644   2.359       .  S
O2635      H2655   0.990       .  S
O2635      H2660   0.990       .  S
O2636      H2656   0.990       .  S
Zr2637     O2638   2.433       .  S
Zr2637     O2639   2.435       .  S
Zr2637     O2643   2.367       .  S
Zr2637     O2642   2.366       .  S
Zr2637     O2647   2.365       .  S
Zr2637     O2645   2.359       .  S
O2638      H2654   0.990       .  S
O2639      H2653   0.990       .  S
O2639      H2663   0.990       .  S
Zr2640     O2643   2.383       .  S
Zr2640     O2645   2.398       .  S
Zr2640     O2646   2.385       .  S
Zr2641     O2642   2.392       .  S
Zr2641     O2644   2.389       .  S
Zr2641     O2647   2.395       .  S
O2642      H2650   0.965       .  S
O2645      H2649   0.966       .  S
O2646      H2651   0.966       .  S
O2664     Zr2676   2.394       .  S
O2664      C2666   1.278       .  A
O2665     Zr2702   2.443       .  S
O2665      C2666   1.291       .  A
O2667      C2669   1.279       .  A
O2668     Zr2703   2.471       .  S
O2668      C2669   1.295       .  A
C2669      C2764   1.475       .  S
O2670     Zr2679   2.395       .  S
O2670      C2672   1.280       .  A
O2671     Zr2702   2.451       .  S
O2671      C2672   1.291       .  A
C2672      C2757   1.464       .  S
O2673      C2675   1.278       .  A
O2674     Zr2703   2.452       .  S
O2674      C2675   1.292       .  A
Zr2676     O2677   2.434       .  S
Zr2676     O2682   2.366       .  S
Zr2676     O2708   2.366       .  S
O2677      H2720   0.990       .  S
Zr2679     O2680   2.436       .  S
Zr2679     O2682   2.360       .  S
Zr2679     O2707   2.355       .  S
O2680      H2724   0.990       .  S
O2682     Zr2702   2.381       .  S
O2683     Zr2703   2.386       .  S
O2683      H2710   0.966       .  S
O2684     Zr2696   2.411       .  S
O2684      C2686   1.281       .  A
O2685     Zr2703   2.451       .  S
O2685      C2686   1.292       .  A
O2687      C2689   1.284       .  A
O2688     Zr2702   2.435       .  S
O2688      C2689   1.288       .  A
C2689      C2737   1.458       .  S
O2690     Zr2699   2.411       .  S
O2690      C2692   1.282       .  A
O2691     Zr2703   2.446       .  S
O2691      C2692   1.290       .  A
C2692      C2748   1.466       .  S
O2693      C2695   1.283       .  A
O2694     Zr2702   2.451       .  S
O2694      C2695   1.292       .  A
C2695      C2730   1.468       .  S
Zr2696     O2697   2.438       .  S
Zr2696     O2698   2.435       .  S
Zr2696     O2704   2.371       .  S
Zr2696     O2706   2.371       .  S
O2697      H2717   0.990       .  S
O2697      H2722   0.990       .  S
O2698      H2718   0.990       .  S
Zr2699     O2700   2.434       .  S
Zr2699     O2701   2.432       .  S
Zr2699     O2704   2.354       .  S
Zr2699     O2709   2.359       .  S
O2701      H2715   0.990       .  S
O2701      H2725   0.990       .  S
Zr2702     O2705   2.384       .  S
Zr2702     O2707   2.390       .  S
Zr2702     O2708   2.393       .  S
Zr2703     O2704   2.396       .  S
Zr2703     O2706   2.396       .  S
Zr2703     O2709   2.385       .  S
O2704      H2712   0.965       .  S
O2707      H2711   0.966       .  S
O2708      H2713   0.966       .  S
C2726      C2933   1.496       .  S
C2726      C2727   1.402       .  A
C2726      C2731   1.408       .  A
C2727      C2728   1.402       .  A
C2727      H2732   1.080       .  S
C2728      C2729   1.401       .  A
C2729      C2730   1.405       .  A
C2729      H2733   1.082       .  S
C2730      C2731   1.406       .  A
C2731      H2734   1.084       .  S
C2735      C2882   1.487       .  S
C2735      C2736   1.400       .  A
C2735      C2740   1.403       .  A
C2736      C2737   1.400       .  A
C2736      H2741   1.080       .  S
C2737      C2738   1.398       .  A
C2738      C2739   1.400       .  A
C2738      H2742   1.083       .  S
C2739      C2740   1.399       .  A
C2740      H2743   1.084       .  S
C2744      C2866   1.476       .  S
C2744      C2745   1.401       .  A
C2744      C2749   1.398       .  A
C2745      C2746   1.398       .  A
C2745      H2750   1.085       .  S
C2746      C2747   1.404       .  A
C2747      C2748   1.404       .  A
C2747      H2751   1.083       .  S
C2748      C2749   1.406       .  A
C2749      H2752   1.085       .  S
C2753      C2850   1.493       .  S
C2753      C2754   1.404       .  A
C2753      C2758   1.406       .  A
C2754      C2755   1.400       .  A
C2754      H2759   1.084       .  S
C2755      C2756   1.398       .  A
C2756      C2757   1.397       .  A
C2756      H2760   1.084       .  S
C2757      C2758   1.407       .  A
C2758      H2761   1.084       .  S
C2762      C2837   1.481       .  S
C2762      C2763   1.401       .  A
C2762      C2767   1.400       .  A
C2763      C2764   1.410       .  A
C2763      H2768   1.085       .  S
C2764      C2765   1.404       .  A
C2765      C2766   1.407       .  A
C2765      H2769   1.084       .  S
C2766      C2767   1.402       .  A
C2767      H2770   1.084       .  S
O2771     Zr2783   2.459       .  S
O2771      C2773   1.289       .  A
O2772      C2773   1.283       .  A
C2773      C2997   1.479       .  S
O2774     Zr2786   2.433       .  S
O2774      C2776   1.284       .  A
O2775      C2776   1.283       .  A
C2776      C2885   1.462       .  S
O2777     Zr2786   2.448       .  S
O2777      C2779   1.286       .  A
O2778      C2779   1.279       .  A
C2779      C3010   1.460       .  S
O2780     Zr2783   2.453       .  S
O2780      C2782   1.288       .  A
O2781      C2782   1.284       .  A
C2782      C2853   1.475       .  S
Zr2783     O2784   2.434       .  S
Zr2783     O2785   2.435       .  S
O2785      H2826   0.990       .  S
O2785      H2830   0.990       .  S
Zr2786     O2787   2.435       .  S
Zr2786     O2788   2.436       .  S
Zr2786     O2790   2.383       .  S
Zr2786     O2789   2.370       .  S
O2787      H2828   0.990       .  S
O2787      H2831   0.990       .  S
O2788      H2821   0.990       .  S
O2790      H2817   0.966       .  S
O2791     Zr2803   2.478       .  S
O2791      C2793   1.293       .  A
O2792      C2793   1.284       .  A
C2793      C2834   1.507       .  S
O2794     Zr2806   2.460       .  S
O2794      C2796   1.289       .  A
O2795     Zr2809   2.386       .  S
O2795      C2796   1.279       .  A
C2796      C2978   1.465       .  S
O2797     Zr2806   2.466       .  S
O2797      C2799   1.291       .  A
O2798     Zr2810   2.397       .  S
O2798      C2799   1.280       .  A
C2799      C2869   1.493       .  S
O2800     Zr2803   2.493       .  S
O2800      C2802   1.296       .  A
O2801      C2802   1.278       .  A
C2802      C2965   1.505       .  S
Zr2803     O2804   2.435       .  S
Zr2803     O2805   2.433       .  S
Zr2803     O2815   2.376       .  S
Zr2803     O2813   2.386       .  S
O2804      H2824   0.990       .  S
O2804      H2829   0.990       .  S
O2805      H2825   0.990       .  S
Zr2806     O2807   2.434       .  S
Zr2806     O2808   2.434       .  S
Zr2806     O2812   2.377       .  S
Zr2806     O2811   2.378       .  S
Zr2806     O2816   2.379       .  S
Zr2806     O2814   2.384       .  S
O2807      H2823   0.990       .  S
O2808      H2822   0.990       .  S
O2808      H2832   0.990       .  S
Zr2809     O2812   2.368       .  S
Zr2809     O2814   2.367       .  S
Zr2810     O2811   2.378       .  S
Zr2810     O2816   2.370       .  S
O2811      H2819   0.966       .  S
O2814      H2818   0.966       .  S
O2815      H2820   0.966       .  S
C2833      C2834   1.413       .  A
C2833      C2838   1.395       .  A
C2833      H2840   1.081       .  S
C2834      C2835   1.423       .  A
C2835      C2836   1.416       .  A
C2835      C2842   1.506       .  S
C2836      C2837   1.404       .  A
C2836      H2841   1.084       .  S
C2837      C2838   1.406       .  A
C2838      C2839   1.510       .  S
C2839      H2843   1.111       .  S
C2839      H2844   1.110       .  S
C2839      H2845   1.110       .  S
C2842      H2846   1.110       .  S
C2842      H2847   1.110       .  S
C2842      H2848   1.111       .  S
C2849      C2850   1.406       .  A
C2849      C2854   1.398       .  A
C2849      H2856   1.083       .  S
C2850      C2851   1.421       .  A
C2851      C2852   1.407       .  A
C2851      C2858   1.507       .  S
C2852      C2853   1.401       .  A
C2852      H2857   1.084       .  S
C2853      C2854   1.410       .  A
C2854      C2855   1.504       .  S
C2855      H2859   1.111       .  S
C2855      H2861   1.110       .  S
C2858      H2862   1.110       .  S
C2858      H2863   1.108       .  S
C2858      H2864   1.111       .  S
C2865      C2866   1.392       .  A
C2865      C2870   1.390       .  A
C2865      H2872   1.085       .  S
C2866      C2867   1.411       .  A
C2867      C2868   1.413       .  A
C2867      C2874   1.505       .  S
C2868      C2869   1.411       .  A
C2868      H2873   1.084       .  S
C2869      C2870   1.424       .  A
C2870      C2871   1.505       .  S
C2871      H2875   1.111       .  S
C2871      H2876   1.107       .  S
C2871      H2877   1.109       .  S
C2874      H2878   1.110       .  S
C2874      H2879   1.109       .  S
C2874      H2880   1.111       .  S
C2881      C2882   1.408       .  A
C2881      C2886   1.404       .  A
C2881      H2888   1.084       .  S
C2882      C2883   1.422       .  A
C2883      C2884   1.395       .  A
C2883      C2890   1.507       .  S
C2884      C2885   1.393       .  A
C2884      H2889   1.085       .  S
C2885      C2886   1.408       .  A
C2886      C2887   1.506       .  S
C2887      H2891   1.111       .  S
C2887      H2892   1.111       .  S
C2887      H2893   1.109       .  S
C2890      H2894   1.110       .  S
C2890      H2895   1.106       .  S
C2890      H2896   1.111       .  S
C2897      C2898   1.412       .  A
C2897      C2902   1.391       .  A
C2897      H2904   1.082       .  S
C2898      C2899   1.422       .  A
C2899      C2900   1.413       .  A
C2899      C2906   1.506       .  S
C2900      C2901   1.402       .  A
C2900      H2905   1.084       .  S
C2901      C2902   1.404       .  A
C2902      C2903   1.512       .  S
C2903      H2907   1.111       .  S
C2903      H2908   1.110       .  S
C2903      H2909   1.110       .  S
C2906      H2910   1.110       .  S
C2906      H2911   1.110       .  S
C2906      H2912   1.111       .  S
C2913      C2914   1.405       .  A
C2913      C2918   1.408       .  A
C2913      H2920   1.084       .  S
C2914      C2915   1.415       .  A
C2915      C2916   1.398       .  A
C2915      C2922   1.505       .  S
C2916      C2917   1.402       .  A
C2916      H2921   1.085       .  S
C2917      C2918   1.417       .  A
C2918      C2919   1.506       .  S
C2919      H2923   1.110       .  S
C2919      H2924   1.110       .  S
C2919      H2925   1.108       .  S
C2922      H2926   1.105       .  S
C2922      H2927   1.110       .  S
C2922      H2928   1.111       .  S
C2929      C2930   1.397       .  A
C2929      C2934   1.399       .  A
C2929      H2936   1.084       .  S
C2930      C2931   1.412       .  A
C2931      C2932   1.410       .  A
C2931      C2938   1.505       .  S
C2932      C2933   1.409       .  A
C2932      H2937   1.084       .  S
C2933      C2934   1.423       .  A
C2934      C2935   1.508       .  S
C2935      H2939   1.108       .  S
C2935      H2940   1.104       .  S
C2935      H2941   1.110       .  S
C2938      H2942   1.110       .  S
C2938      H2943   1.111       .  S
C2938      H2944   1.111       .  S
C2945      C2946   1.407       .  A
C2945      C2950   1.394       .  A
C2945      H2952   1.084       .  S
C2946      C2947   1.419       .  A
C2947      C2948   1.410       .  A
C2947      C2954   1.505       .  S
C2948      C2949   1.402       .  A
C2948      H2953   1.084       .  S
C2949      C2950   1.409       .  A
C2950      C2951   1.511       .  S
C2951      H2955   1.110       .  S
C2951      H2956   1.110       .  S
C2951      H2957   1.109       .  S
C2954      H2958   1.110       .  S
C2954      H2959   1.110       .  S
C2954      H2960   1.111       .  S
C2961      C2962   1.405       .  A
C2961      C2966   1.415       .  A
C2961      H2968   1.084       .  S
C2962      C2963   1.404       .  A
C2963      C2964   1.395       .  A
C2963      C2970   1.513       .  S
C2964      C2965   1.417       .  A
C2964      H2969   1.083       .  S
C2965      C2966   1.421       .  A
C2966      C2967   1.505       .  S
C2967      H2971   1.111       .  S
C2967      H2972   1.110       .  S
C2967      H2973   1.110       .  S
C2970      H2974   1.108       .  S
C2970      H2975   1.109       .  S
C2970      H2976   1.111       .  S
C2977      C2978   1.400       .  A
C2977      C2982   1.398       .  A
C2977      H2984   1.085       .  S
C2978      C2979   1.409       .  A
C2979      C2980   1.405       .  A
C2979      C2986   1.506       .  S
C2980      C2981   1.409       .  A
C2980      H2985   1.084       .  S
C2981      C2982   1.420       .  A
C2982      C2983   1.510       .  S
C2983      H2987   1.110       .  S
C2983      H2988   1.107       .  S
C2983      H2989   1.108       .  S
C2986      H2990   1.110       .  S
C2986      H2991   1.109       .  S
C2986      H2992   1.111       .  S
C2993      C2994   1.414       .  A
C2993      C2998   1.411       .  A
C2993      H3000   1.083       .  S
C2994      C2995   1.424       .  A
C2995      C2996   1.397       .  A
C2995      C3002   1.510       .  S
C2996      C2997   1.398       .  A
C2996      H3001   1.085       .  S
C2997      C2998   1.410       .  A
C2998      C2999   1.505       .  S
C2999      H3003   1.111       .  S
C2999      H3005   1.110       .  S
C3002      H3006   1.110       .  S
C3002      H3007   1.106       .  S
C3002      H3008   1.106       .  S
C3009      C3010   1.397       .  A
C3009      C3014   1.399       .  A
C3009      H3016   1.085       .  S
C3010      C3011   1.405       .  A
C3011      C3012   1.403       .  A
C3011      C3018   1.507       .  S
C3012      C3013   1.413       .  A
C3012      H3017   1.084       .  S
C3013      C3014   1.423       .  A
C3014      C3015   1.511       .  S
C3015      H3019   1.111       .  S
C3015      H3020   1.110       .  S
C3015      H3021   1.107       .  S
C3018      H3023   1.110       .  S
C3018      H3024   1.111       .  S
C3025      C3026   1.414       .  A
C3025      C3030   1.408       .  A
C3025      H3032   1.083       .  S
C3026      C3027   1.428       .  A
C3027      C3028   1.396       .  A
C3027      C3034   1.511       .  S
C3028      C3029   1.396       .  A
C3028      H3033   1.085       .  S
C3029      C3030   1.406       .  A
C3030      C3031   1.505       .  S
C3031      H3035   1.111       .  S
C3031      H3036   1.110       .  S
C3031      H3037   1.110       .  S
C3034      H3038   1.108       .  S
C3034      H3039   1.109       .  S
C3034      H3040   1.111       .  S
C3041      C3042   1.400       .  A
C3041      C3046   1.403       .  A
C3041      H3048   1.085       .  S
C3042      C3043   1.413       .  A
C3043      C3044   1.411       .  A
C3043      C3050   1.505       .  S
C3044      C3045   1.408       .  A
C3044      H3049   1.084       .  S
C3045      C3046   1.421       .  A
C3046      C3047   1.507       .  S
C3047      H3051   1.111       .  S
C3047      H3052   1.109       .  S
C3047      H3053   1.109       .  S
C3050      H3054   1.109       .  S
C3050      H3055   1.110       .  S
C3050      H3056   1.111       .  S
C3057      C3058   1.404       .  A
C3057      C3062   1.399       .  A
C3057      H3064   1.085       .  S
C3058      C3059   1.413       .  A
C3059      C3060   1.411       .  A
C3059      C3066   1.506       .  S
C3060      C3061   1.410       .  A
C3060      H3065   1.084       .  S
C3061      C3062   1.421       .  A
C3062      C3063   1.513       .  S
C3063      H3067   1.111       .  S
C3063      H3068   1.108       .  S
C3063      H3069   1.111       .  S
C3066      H3070   1.108       .  S
C3066      H3071   1.110       .  S
C3066      H3072   1.111       .  S
C3073      C3074   1.406       .  A
C3073      C3078   1.393       .  A
C3073      H3080   1.081       .  S
C3074      C3075   1.423       .  A
C3075      C3076   1.411       .  A
C3075      C3082   1.507       .  S
C3076      C3077   1.401       .  A
C3076      H3081   1.084       .  S
C3077      C3078   1.412       .  A
C3078      C3079   1.512       .  S
C3079      H3083   1.111       .  S
C3079      H3084   1.108       .  S
C3079      H3085   1.110       .  S
C3082      H3086   1.110       .  S
C3082      H3087   1.110       .  S
C3082      H3088   1.111       .  S
