geometry optimzed in LAMMPS
_audit_creation_date              2020-12-01 
_audit_creation_method            'lammps2cif' 
_symmetry_space_group_name_H-M    'P1' 
_symmetry_Int_Tables_number       1 
_symmetry_cell_setting            triclinic 
loop_ 
_symmetry_equiv_pos_as_xyz 
  x,y,z 
_cell_length_a                    41.86624828 
_cell_length_b                    41.92928565010183 
_cell_length_c                    46.87126715990189 
_cell_angle_alpha                 98.66417989292566 
_cell_angle_beta                  80.85468146256262 
_cell_angle_gamma                 122.70006327001151 
loop_ 
_atom_site_label 
_atom_site_type_symbol 
_atom_site_fract_x 
_atom_site_fract_y 
_atom_site_fract_z 
_atom_site_charge 
C1          C  0.35855410  0.14931348  0.97979084     0.02200
C2          C  0.31916479  0.12677206  0.97722076    -0.14000
C3          C  0.29861437  0.14353701  0.97484017    -0.00300
C4          C  0.31751590  0.18309923  0.97478634    -0.12500
C5          C  0.35654669  0.20613432  0.97828400     0.02200
C6          C  0.37656214  0.18906531  0.98184118    -0.11900
H7          H  0.30457194  0.09603513  0.97602991     0.07800
H8          H  0.30204972  0.19573986  0.97084915     0.05300
H9          H  0.40662448  0.20686884  0.98504905     0.05100
C10         C  0.35033117  0.14653227  0.24057608     0.02200
C11         C  0.31050884  0.12565309  0.23992574    -0.14000
C12         C  0.29103480  0.14416922  0.23895993    -0.00300
C13         C  0.31168596  0.18375110  0.23820477    -0.12500
C14         C  0.35142267  0.20482628  0.23794798     0.02200
C15         C  0.37052461  0.18630490  0.23997896    -0.11900
H16         H  0.29492325  0.09491191  0.23840083     0.07800
H17         H  0.29715466  0.19781410  0.23528472     0.05300
H18         H  0.40142022  0.20263600  0.23917647     0.05100
C19         C  0.14111508  0.34133093  0.36291312     0.02200
C20         C  0.12129239  0.30154279  0.36192715    -0.14000
C21         C  0.14057797  0.28319726  0.36340220    -0.00300
C22         C  0.18025164  0.30452629  0.36417902    -0.12500
C23         C  0.20084327  0.34425193  0.36365161     0.02200
C24         C  0.18097723  0.36245170  0.36304172    -0.11900
H25         H  0.09052311  0.28496114  0.36188833     0.07800
H26         H  0.19469413  0.29037018  0.36704628     0.05300
H27         H  0.19637653  0.39322989  0.36400010     0.05100
C28         C  0.14787793  0.34880991  0.10944799     0.02200
C29         C  0.12912551  0.30944670  0.11125906    -0.14000
C30         C  0.14991266  0.29215295  0.11169569    -0.00300
C31         C  0.18984251  0.31475051  0.11044103    -0.12500
C32         C  0.20883553  0.35415801  0.10888010     0.02200
C33         C  0.18784200  0.37088009  0.10765951    -0.11900
H34         H  0.09827088  0.29257546  0.11414459     0.07800
H35         H  0.20592755  0.30217616  0.11301051     0.05300
H36         H  0.20251033  0.40152849  0.10749373     0.05100
N37         N  0.07916657  0.05214872  0.44845271    -0.07100
N38         N  0.10642768  0.06632317  0.46585215    -0.59200
N39         N  0.05414552  0.07388275  0.39359518    -0.06700
N40         N  0.06678509  0.10048779  0.37547994    -0.61300
N41         N  0.04308180  0.08429453  0.41915894    -0.06300
N42         N  0.04789113  0.11799260  0.41903121    -0.59200
N43         N  0.08948913  0.04077567  0.42300637    -0.06000
N44         N  0.12393274  0.04695523  0.42258936    -0.61700
C45         C  0.13418622  0.06276503  0.44954347     0.95100
C46         C  0.06231005  0.12772121  0.39162404     0.94900
N47         N  0.48357132  0.46474944  0.35120216    -0.07300
N48         N  0.46773020  0.45738115  0.32690098    -0.59800
N49         N  0.05088845  0.46482203  0.38070082    -0.05400
N50         N  0.07952729  0.45927955  0.37568854    -0.61000
N51         N  0.01809898  0.43212449  0.38185300    -0.07300
N52         N  0.02373344  0.40364237  0.37797869    -0.60000
N53         N  0.01721504  0.00010830  0.35237738    -0.05000
N54         N  0.02500942  0.01624810  0.32816853    -0.61100
Mn55       Mn  0.05415864  0.02069837  0.38689504     1.18400
C56         C  0.49317850  0.48786763  0.31183447     0.97200
C57         C  0.06210591  0.42102175  0.37392580     0.97900
N58         N  0.47077410  0.04759905  0.46340743    -0.07300
N59         N  0.46480250  0.07579093  0.46639187    -0.63600
N60         N  0.47143862  0.48224703  0.49281256    -0.06100
N61         N  0.47241928  0.47579395  0.01760842    -0.64300
N62         N  0.00696712  0.01587277  0.49290843    -0.06800
N63         N  0.02937991  0.03068813  0.01760469    -0.63900
N64         N  0.43822241  0.01477442  0.46479070    -0.05700
N65         N  0.40934117  0.01992301  0.46889054    -0.64600
Mn66       Mn  0.02545681  0.05089338  0.45651670     1.10700
C67         C  0.42639600  0.05812185  0.47004857     0.98400
C68         C  0.50260448  0.50120070  0.03255171     0.98500
N69         N  0.44439802  0.39593287  0.42578898    -0.06800
N70         N  0.43884885  0.36199181  0.42642717    -0.62200
N71         N  0.39921372  0.43982991  0.42078065    -0.06100
N72         N  0.36519016  0.43456623  0.42072100    -0.58900
N73         N  0.40983559  0.42867441  0.39532243    -0.07400
N74         N  0.38316865  0.41555620  0.37746942    -0.61800
N75         N  0.43374820  0.40704651  0.45125270    -0.06400
N76         N  0.42065278  0.38075923  0.46970498    -0.58900
Mn77       Mn  0.46344379  0.42933990  0.38794898     1.20200
Mn78       Mn  0.43429779  0.46031135  0.45742148     1.10100
Cl79       Cl  0.49371332  0.48955648  0.42158087    -0.86900
C80         C  0.42450877  0.35295775  0.45397978     0.95400
C81         C  0.35557081  0.41977967  0.39350071     0.95200
N82         N  0.08275419  0.05879765  0.20294187    -0.07100
N83         N  0.10966193  0.07343128  0.22088990    -0.59200
N84         N  0.06233514  0.08201825  0.14606495    -0.06700
N85         N  0.07819024  0.10996061  0.12869618    -0.61300
N86         N  0.05023361  0.09224413  0.17129570    -0.06300
N87         N  0.05739694  0.12696284  0.17150246    -0.59200
N88         N  0.09428072  0.04808008  0.17769063    -0.06000
N89         N  0.12882569  0.05495049  0.17799629    -0.61700
C90         C  0.13820917  0.07047437  0.20503291     0.95100
C91         C  0.07458943  0.13781086  0.14481350     0.94900
N92         N  0.49333253  0.47354475  0.10199155    -0.07300
N93         N  0.47947008  0.46638353  0.07684932    -0.59800
N94         N  0.05596037  0.47101842  0.13616393    -0.05400
N95         N  0.08406467  0.46484476  0.13395163    -0.61000
N96         N  0.02300345  0.43851695  0.13507003    -0.07300
N97         N  0.02799716  0.40961707  0.13168615    -0.60000
N98         N  0.02745027  0.00698422  0.10278069    -0.05000
N99         N  0.03617353  0.02210076  0.07780969    -0.61100
Mn100      Mn  0.06174611  0.02821409  0.13995119     1.18400
C101        C  0.50586079  0.49677753  0.06212656     0.97200
C102        C  0.06614098  0.42647142  0.13128531     0.97900
N103        N  0.47406371  0.05507968  0.21237219    -0.07300
N104        N  0.46854414  0.08367779  0.21678410    -0.63600
N105        N  0.46852459  0.48560351  0.24317708    -0.06100
N106        N  0.45953617  0.46886777  0.26740866    -0.64300
N107        N  0.00528361  0.02058755  0.24453248    -0.06800
N108        N  0.01888430  0.02740985  0.26972347    -0.63900
N109        N  0.44122143  0.02243524  0.21210779    -0.05700
N110        N  0.41263072  0.02812889  0.21672530    -0.64600
Mn111      Mn  0.02853536  0.05747661  0.20840624     1.10700
C112        C  0.43015131  0.06645088  0.21935328     0.98400
C113        C  0.48943634  0.49324875  0.28292233     0.98500
N114        N  0.44563568  0.40146384  0.17550940    -0.06800
N115        N  0.43859394  0.36692927  0.17673026    -0.62200
N116        N  0.40444091  0.44855833  0.16709591    -0.06100
N117        N  0.37124750  0.44425252  0.16525275    -0.58900
N118        N  0.41635748  0.43724796  0.14233548    -0.07400
N119        N  0.39127541  0.42481659  0.12319844    -0.62000
N120        N  0.43332222  0.41259733  0.20016047    -0.06400
N121        N  0.41774303  0.38595677  0.21855452    -0.58900
Mn122      Mn  0.46920298  0.43672878  0.13811590     1.20200
Mn123      Mn  0.43538337  0.46657940  0.20576730     1.10100
Cl124      Cl  0.49759016  0.49618722  0.17311904    -0.86900
C125        C  0.42125419  0.35755108  0.20381046     0.95400
C126        C  0.36332060  0.42964879  0.13769714     0.95200
C127        C  0.11665111  0.18755494  0.11019040    -0.10100
C128        C  0.09190440  0.17690868  0.13583465     0.06100
C129        C  0.08603071  0.20461684  0.15285051    -0.03900
C130        C  0.10458502  0.24139726  0.14402279    -0.08300
C131        C  0.12966325  0.25202521  0.11875737     0.05200
C132        C  0.13575197  0.22474666  0.10176180    -0.03300
Br133      Br  0.16926889  0.23653195  0.06665716    -0.03000
H134        H  0.12185751  0.16710809  0.09683087     0.09100
H135        H  0.10013388  0.26229497  0.15749295     0.07100
Br136      Br  0.05414983  0.19585623  0.18877648    -0.03500
C137        C  0.29810512  0.41773780  0.14702270    -0.10100
C138        C  0.32576934  0.41518996  0.12720807     0.06100
C139        C  0.31534624  0.39614661  0.09947216    -0.03900
C140        C  0.27723229  0.37739376  0.09334726    -0.08300
C141        C  0.24948599  0.37820438  0.11402840     0.05200
C142        C  0.26041060  0.39951433  0.14072967    -0.03300
Br143      Br  0.22441666  0.40188354  0.17061092    -0.03000
H144        H  0.30526326  0.43261811  0.16822110     0.09100
H145        H  0.26903418  0.36150546  0.07256979     0.07100
Br146      Br  0.35091207  0.39418292  0.06895168    -0.03500
C147        C  0.13409362  0.39546103  0.13802198    -0.10100
C148        C  0.12600130  0.36781475  0.11459795     0.06100
C149        C  0.09663412  0.35824740  0.09760698    -0.03900
C150        C  0.07688107  0.37719051  0.10371765    -0.08300
C151        C  0.08592390  0.40561807  0.12660055     0.05200
C152        C  0.11414482  0.41405917  0.14425096    -0.03300
Br153      Br  0.12413526  0.44810888  0.17859406    -0.03000
H154        H  0.15549725  0.40204896  0.15192689     0.09100
H155        H  0.05499365  0.37030769  0.09016747     0.07100
Br156      Br  0.08353607  0.32097975  0.06512293    -0.03500
C157        C  0.09252800  0.19636266  0.40527728    -0.10100
C158        C  0.07919409  0.16671270  0.38323108     0.06100
C159        C  0.08410888  0.17557194  0.35432235    -0.03900
C160        C  0.10397104  0.21377372  0.34792820    -0.08300
C161        C  0.11868688  0.24312842  0.37005292     0.05200
C162        C  0.11205034  0.23415997  0.39892938    -0.03300
Br163      Br  0.12919980  0.27264198  0.43059871    -0.03000
H164        H  0.08873557  0.19031079  0.42762664     0.09100
H165        H  0.10804993  0.22058662  0.32576927     0.07100
Br166      Br  0.06261677  0.13703606  0.32320234    -0.03500
C167        C  0.25428092  0.39552441  0.39121030    -0.10100
C168        C  0.24194177  0.36689587  0.36837773     0.06100
C169        C  0.26853370  0.35905214  0.35192802    -0.03900
C170        C  0.30581467  0.37782774  0.35975422    -0.08300
C171        C  0.31751882  0.40474828  0.38379272     0.05200
C172        C  0.29163844  0.41465280  0.39886723    -0.03300
Br173      Br  0.30499015  0.45425751  0.42975891    -0.03000
H174        H  0.23440409  0.40231715  0.40380701     0.09100
H175        H  0.32537989  0.37043648  0.34738797     0.07100
Br176      Br  0.25588254  0.32364080  0.31824350    -0.03500
C177        C  0.13141782  0.38906292  0.34659566    -0.10100
C178        C  0.12016210  0.36111097  0.36560230     0.06100
C179        C  0.08987749  0.35345220  0.38736927    -0.03900
C180        C  0.07091769  0.37277843  0.38914357    -0.08300
C181        C  0.08228892  0.40069704  0.37024423     0.05200
C182        C  0.11290631  0.40899500  0.34887208    -0.03300
Br183      Br  0.12936568  0.44580133  0.32140300    -0.03000
H184        H  0.15454341  0.39526447  0.32985715     0.09100
H185        H  0.04813463  0.36700476  0.40603491     0.07100
Br186      Br  0.07500998  0.31966764  0.41702420    -0.03500
C187        C  0.38139095  0.07792571  0.24806696    -0.10100
C188        C  0.40997517  0.08703730  0.22494235     0.06100
C189        C  0.41921387  0.11608231  0.20765634    -0.03900
C190        C  0.39998128  0.13543416  0.21355533    -0.08300
C191        C  0.37136749  0.12655164  0.23667313     0.05200
C192        C  0.36236355  0.09766153  0.25423795    -0.03300
Br193      Br  0.32609509  0.08555077  0.28779422    -0.03000
H194        H  0.37440302  0.05593377  0.26172642     0.09100
H195        H  0.40674343  0.15688995  0.19944798     0.07100
Br196      Br  0.45554513  0.12827464  0.17419869    -0.03500
C197        C  0.41078478  0.29276678  0.19629458    -0.10100
C198        C  0.40540358  0.31963528  0.21461293     0.06100
C199        C  0.38353663  0.30860026  0.24173939    -0.03900
C200        C  0.36766691  0.27156869  0.24953464    -0.08300
C201        C  0.37273236  0.24490877  0.23087775     0.05200
C202        C  0.39435305  0.25572462  0.20398035    -0.03300
Br203      Br  0.39895958  0.21995528  0.17555815    -0.03000
H204        H  0.42682433  0.30008772  0.17528323     0.09100
H205        H  0.35029174  0.26312917  0.26998256     0.07100
Br206      Br  0.37200856  0.34103145  0.26891499    -0.03500
C207        C  0.18601046  0.10921810  0.24099440    -0.10100
C208        C  0.17651497  0.08629345  0.21474700     0.06100
C209        C  0.20469537  0.08080495  0.19780596    -0.03900
C210        C  0.24096022  0.09827359  0.20716624    -0.08300
C211        C  0.25063171  0.12210562  0.23275358     0.05200
C212        C  0.22277043  0.12740046  0.24986769    -0.03300
Br213      Br  0.23360182  0.15927338  0.28541476    -0.03000
H214        H  0.16516295  0.11399290  0.25432880     0.09100
H215        H  0.26241813  0.09461464  0.19361739     0.07100
Br216      Br  0.19761351  0.05161283  0.16099169    -0.03500
C217        C  0.36518542  0.09871406  0.99458758    -0.10100
C218        C  0.36916169  0.11864354  0.47626820     0.06100
C219        C  0.40269836  0.12924231  0.45747603    -0.03900
C220        C  0.42115793  0.10955358  0.45639290    -0.08300
C221        C  0.40602889  0.07821986  0.47272983     0.05200
C222        C  0.37190240  0.06679198  0.49080544    -0.03300
Br223      Br  0.35846465  0.03376009  0.01369106    -0.03000
H224        H  0.33880067  0.08922465  0.00850616     0.09100
H225        H  0.44691020  0.11800188  0.44183737     0.07100
Br226      Br  0.42284266  0.16769880  0.43068165    -0.03500
C227        C  0.38121360  0.30211158  0.48747386    -0.10100
C228        C  0.40973111  0.31519273  0.46411985     0.06100
C229        C  0.42136425  0.29059376  0.44948796    -0.03900
C230        C  0.40242248  0.25310909  0.45662792    -0.08300
C231        C  0.37219951  0.23925294  0.47851070     0.05200
C232        C  0.36248004  0.26444637  0.49477197    -0.03300
Br233      Br  0.32455182  0.25526827  0.01881792    -0.03000
H234        H  0.37243914  0.32074806  0.49944942     0.09100
H235        H  0.41046760  0.23423666  0.44414286     0.07100
Br236      Br  0.46287753  0.30566051  0.41957518    -0.03500
C237        C  0.19928064  0.07461619  0.43774289    -0.10100
C238        C  0.17299284  0.07888771  0.45806999     0.06100
C239        C  0.18560530  0.10080408  0.48459439    -0.03900
C240        C  0.23223593  0.12566820  0.99098684    -0.08300
C241        C  0.25009288  0.11540678  0.46874205     0.05200
C242        C  0.23751186  0.09283810  0.44271778    -0.03300
Br243      Br  0.27176916  0.08866478  0.41207708    -0.03000
H244        H  0.19048805  0.05809598  0.41725421     0.09100
H245        H  0.24262247  0.14495006  0.01016727     0.07100
Br246      Br  0.16275824  0.11901742  0.01550391    -0.03500
C247        C  0.34867202  0.13876331  0.47831533     0.02200
C248        C  0.30963013  0.11810866  0.47472763    -0.14000
C249        C  0.29058313  0.13698954  0.47418228    -0.00300
C250        C  0.31061320  0.17679215  0.47750770    -0.12500
C251        C  0.34956646  0.19781803  0.48151292     0.02200
C252        C  0.36812280  0.17852474  0.48275211    -0.11900
H253        H  0.29425190  0.08734081  0.47143480     0.07800
H254        H  0.29633107  0.19134479  0.47531451     0.05300
H255        H  0.39827094  0.19467354  0.48579551     0.05100
C256        C  0.34830058  0.14766918  0.74128311     0.02200
C257        C  0.30818024  0.12781395  0.74370925    -0.14000
C258        C  0.28904774  0.14682362  0.74319741    -0.00300
C259        C  0.31025702  0.18635683  0.74183775    -0.12500
C260        C  0.35013623  0.20648550  0.73925619     0.02200
C261        C  0.36899269  0.18710975  0.73882454    -0.11900
H262        H  0.29180449  0.09717047  0.74400374     0.07800
H263        H  0.29593866  0.20093289  0.73978328     0.05300
H264        H  0.39980915  0.20249540  0.73460934     0.05100
C265        C  0.15249162  0.35588162  0.86456408     0.02200
C266        C  0.13283382  0.31657931  0.86722709    -0.14000
C267        C  0.15296051  0.29871647  0.86776600    -0.00300
C268        C  0.19292428  0.32025662  0.86530640    -0.12500
C269        C  0.21285020  0.35960696  0.86270553     0.02200
C270        C  0.19243807  0.37712213  0.86191266    -0.11900
H271        H  0.10192638  0.30016833  0.86990655     0.07800
H272        H  0.20838492  0.30682976  0.86732301     0.05300
H273        H  0.20761944  0.40768441  0.86092785     0.05100
C274        C  0.14797922  0.34990306  0.60539624     0.02200
C275        C  0.12705004  0.30997844  0.60468537    -0.14000
C276        C  0.14506887  0.29017328  0.60643040    -0.00300
C277        C  0.18449915  0.31096368  0.60902582    -0.12500
C278        C  0.20570870  0.35072231  0.60965113     0.02200
C279        C  0.18750540  0.36999228  0.60740455    -0.11900
H280        H  0.09636329  0.29443398  0.60452516     0.07800
H281        H  0.19830731  0.29647048  0.61260355     0.05300
H282        H  0.20378589  0.40083701  0.60901024     0.05100
N283        N  0.08834387  0.06086363  0.94944034    -0.07100
N284        N  0.11465991  0.07324292  0.96741267    -0.59200
N285        N  0.06629214  0.08625391  0.89479220    -0.06700
N286        N  0.08126462  0.11421106  0.87757678    -0.61300
N287        N  0.05525365  0.09629733  0.92055845    -0.06300
N288        N  0.06234951  0.13111202  0.92129951    -0.59200
N289        N  0.09935410  0.05071903  0.92372873    -0.06000
N290        N  0.13331574  0.05587212  0.92375727    -0.61700
C291        C  0.14254276  0.06981487  0.95120419     0.95100
C292        C  0.07827760  0.14198256  0.89427903     0.94900
N293        N  0.49396911  0.47779529  0.85163526    -0.07300
N294        N  0.47795386  0.46953289  0.82737965    -0.59800
N295        N  0.06133064  0.47793818  0.88053183    -0.05400
N296        N  0.09018032  0.47269585  0.87585068    -0.61000
N297        N  0.02870269  0.44508053  0.88155271    -0.07300
N298        N  0.03459183  0.41677942  0.87786423    -0.60000
N299        N  0.02860337  0.01248282  0.85135801    -0.05000
N300        N  0.03547693  0.02827424  0.82699322    -0.61100
Mn301      Mn  0.06515228  0.03242818  0.88688138     1.18400
C302        C  0.50270569  0.49972375  0.81199426     0.97200
C303        C  0.07295872  0.43446039  0.87409190     0.97900
N304        N  0.48100286  0.05812871  0.96348489    -0.07300
N305        N  0.47561102  0.08674193  0.96772536    -0.63600
N306        N  0.48004826  0.49127618  0.99299400    -0.06100
N307        N  0.46423001  0.46807485  0.51798007    -0.64300
N308        N  0.01431130  0.02342067  0.99296452    -0.06800
N309        N  0.02337957  0.02473742  0.51707494    -0.63900
N310        N  0.44816649  0.02552573  0.96376213    -0.05700
N311        N  0.41966112  0.03123508  0.96833607    -0.64600
Mn312      Mn  0.03516905  0.06054460  0.95717820     1.10700
C313        C  0.43724890  0.06952510  0.97096493     0.98400
C314        C  0.49478227  0.49428378  0.53228792     0.98500
N315        N  0.45436851  0.40715576  0.92450016    -0.06800
N316        N  0.44784216  0.37265803  0.92410680    -0.62200
N317        N  0.40929910  0.45144055  0.92029016    -0.06100
N318        N  0.37559962  0.44674618  0.91995904    -0.58900
N319        N  0.42026129  0.44084165  0.89474505    -0.07400
N320        N  0.39419111  0.42877042  0.87652561    -0.61800
N321        N  0.44299084  0.41731008  0.95005800    -0.06400
N322        N  0.42838243  0.38974419  0.96757031    -0.58900
Mn323      Mn  0.47395059  0.44183122  0.88759703     1.20200
Mn324      Mn  0.44359713  0.47072026  0.95729545     1.10100
Cl325      Cl  0.50342905  0.50125627  0.92203002    -0.86900
C326        C  0.43210143  0.36221960  0.95116125     0.95400
C327        C  0.36655805  0.43299532  0.89248883     0.95200
N328        N  0.08381520  0.06440784  0.70106448    -0.07100
N329        N  0.11019351  0.07934670  0.71948124    -0.59200
N330        N  0.06108593  0.08249974  0.64269406    -0.06700
N331        N  0.07441805  0.10804653  0.62352172    -0.61300
N332        N  0.04897139  0.09400336  0.66729943    -0.06300
N333        N  0.05374295  0.12738470  0.66533085    -0.59200
N334        N  0.09529538  0.05225330  0.67650539    -0.06000
N335        N  0.12954550  0.05867250  0.67775917    -0.61700
C336        C  0.13861642  0.07538439  0.70469613     0.95100
C337        C  0.06918328  0.13575177  0.63783433     0.94900
N338        N  0.48894614  0.47126627  0.60260388    -0.07300
N339        N  0.47364736  0.46227152  0.57787806    -0.59800
N340        N  0.05575529  0.47274133  0.63426181    -0.05400
N341        N  0.08456934  0.46744275  0.62948746    -0.61000
N342        N  0.02310300  0.43983030  0.63440035    -0.07300
N343        N  0.02904239  0.41148637  0.62940583    -0.60000
N344        N  0.02596249  0.00570323  0.60241958    -0.05000
N345        N  0.03362003  0.01939427  0.57697539    -0.61100
Mn346      Mn  0.06162041  0.02944904  0.63888875     1.18400
C347        C  0.49906837  0.49179372  0.56199337     0.97200
C348        C  0.06746358  0.42916532  0.62660300     0.97900
N349        N  0.47385920  0.05802638  0.71038639    -0.07300
N350        N  0.46732073  0.08597089  0.71451872    -0.63600
N351        N  0.47389669  0.49136200  0.74366468    -0.06100
N352        N  0.46705008  0.47673814  0.76855516    -0.64300
N353        N  0.00863427  0.02806787  0.74348079    -0.06800
N354        N  0.02449651  0.03674039  0.76792021    -0.63900
N355        N  0.44148125  0.02488256  0.71072011    -0.05700
N356        N  0.41231149  0.02964109  0.71483383    -0.64600
Mn357      Mn  0.02922659  0.06208142  0.70606611     1.10700
C358        C  0.42882325  0.06785063  0.71695071     0.98400
C359        C  0.49760485  0.50295794  0.78285637     0.98500
N360        N  0.44828176  0.40379234  0.67795428    -0.06800
N361        N  0.44138682  0.36935649  0.67910522    -0.62200
N362        N  0.40282492  0.44702872  0.67055266    -0.06100
N363        N  0.36839810  0.44054252  0.66971739    -0.58900
N364        N  0.41414136  0.43532344  0.64566865    -0.07400
N365        N  0.38757576  0.42060669  0.62749549    -0.62000
N366        N  0.43678881  0.41528705  0.70284983    -0.06400
N367        N  0.42175973  0.38877712  0.72136062    -0.58900
Mn368      Mn  0.46823755  0.43672026  0.63971177     1.20200
Mn369      Mn  0.43729119  0.46864047  0.70781093     1.10100
Cl370      Cl  0.49755584  0.49782469  0.67294518    -0.86900
C371        C  0.42511971  0.36032454  0.70640233     0.95400
C372        C  0.35922745  0.42430731  0.64260132     0.95200
C373        C  0.11364877  0.18594039  0.60407383    -0.10100
C374        C  0.08401331  0.17311250  0.62660968     0.06100
C375        C  0.07128685  0.19759516  0.63934857    -0.03900
C376        C  0.09057543  0.23500040  0.63155288    -0.08300
C377        C  0.12206477  0.24873879  0.61059200     0.05200
C378        C  0.13244366  0.22322260  0.59587355    -0.03300
Br379      Br  0.17143536  0.23740670  0.56404256    -0.03000
H380        H  0.12314615  0.16735334  0.59335879     0.09100
H381        H  0.08161886  0.25382114  0.64274355     0.07100
Br382      Br  0.02737716  0.18197877  0.66709250    -0.03500
C383        C  0.29122614  0.40489694  0.65326742    -0.10100
C384        C  0.32094147  0.40816408  0.63255621     0.06100
C385        C  0.31252245  0.39421367  0.60347504    -0.03900
C386        C  0.27493957  0.37614012  0.59621875    -0.08300
C387        C  0.24547168  0.37211895  0.61724834     0.05200
C388        C  0.25389919  0.38704591  0.64587411    -0.03300
Br389      Br  0.21483189  0.38184951  0.67597590    -0.03000
H390        H  0.29669470  0.41531974  0.67565203     0.09100
H391        H  0.26859510  0.36492344  0.57406267     0.07100
Br392      Br  0.35041318  0.39917463  0.57231178    -0.03500
C393        C  0.13529754  0.39790562  0.63304151    -0.10100
C394        C  0.12793669  0.37086179  0.60923490     0.06100
C395        C  0.10044202  0.36329378  0.59095760    -0.03900
C396        C  0.08060119  0.38221814  0.59707251    -0.08300
C397        C  0.08823765  0.40923328  0.62087286     0.05200
C398        C  0.11581774  0.41699535  0.63889948    -0.03300
Br399      Br  0.12558219  0.45097518  0.67325450    -0.03000
H400        H  0.15559055  0.40347622  0.64770273     0.09100
H401        H  0.05965478  0.37634557  0.58291117     0.07100
Br402      Br  0.09034965  0.32913523  0.55662819    -0.03500
C403        C  0.10155764  0.20998301  0.90854194    -0.10100
C404        C  0.09547375  0.18142349  0.88612082     0.06100
C405        C  0.10746434  0.19191249  0.85719300    -0.03900
C406        C  0.12586863  0.23023484  0.85153703    -0.08300
C407        C  0.13237266  0.25845468  0.87415134     0.05200
C408        C  0.11994192  0.24805376  0.90281141    -0.03300
Br409      Br  0.12901069  0.28497669  0.93511973    -0.03000
H410        H  0.09290917  0.20295963  0.93087180     0.09100
H411        H  0.13519891  0.23807621  0.82942240     0.07100
Br412      Br  0.09884997  0.15582199  0.82426365    -0.03500
C413        C  0.26564911  0.40962494  0.89077824    -0.10100
C414        C  0.25399551  0.38311307  0.86665716     0.06100
C415        C  0.28103472  0.37729097  0.84877556    -0.03900
C416        C  0.31821138  0.39529008  0.85675449    -0.08300
C417        C  0.32911339  0.41951898  0.88234241     0.05200
C418        C  0.30279793  0.42810630  0.89859544    -0.03300
Br419      Br  0.31488251  0.46460567  0.93165828    -0.03000
H420        H  0.24524383  0.41493833  0.90433937     0.09100
H421        H  0.33821211  0.38925282  0.84335198     0.07100
Br422      Br  0.26853386  0.34554239  0.81319906    -0.03500
C423        C  0.13509100  0.39501185  0.84356868    -0.10100
C424        C  0.13154739  0.37551079  0.86690128     0.06100
C425        C  0.10917996  0.37626925  0.89257524    -0.03900
C426        C  0.08983545  0.39518499  0.89425314    -0.08300
C427        C  0.09333958  0.41451668  0.87098937     0.05200
C428        C  0.11620900  0.41457708  0.84551210    -0.03300
Br429      Br  0.12110747  0.43963121  0.81260190    -0.03000
H430        H  0.15239755  0.39487386  0.82386951     0.09100
H431        H  0.07277995  0.39562555  0.91402367     0.07100
Br432      Br  0.10632364  0.35468192  0.92681732    -0.03500
C433        C  0.42057522  0.11932386  0.74346874    -0.10100
C434        C  0.40757876  0.08748238  0.72329276     0.06100
C435        C  0.37439886  0.07487469  0.70991406    -0.03900
C436        C  0.35542023  0.09453984  0.71638826    -0.08300
C437        C  0.36832060  0.12649798  0.73657704     0.05200
C438        C  0.40100244  0.13842048  0.75055481    -0.03300
Br439      Br  0.41890495  0.17885264  0.78083147    -0.03000
H440        H  0.44559820  0.12885286  0.75434695     0.09100
H441        H  0.33083401  0.08522405  0.70498585     0.07100
Br442      Br  0.35503420  0.03257342  0.68119539    -0.03500
C443        C  0.40456965  0.29249996  0.69562899    -0.10100
C444        C  0.40812403  0.32187288  0.71648184     0.06100
C445        C  0.39368695  0.31294909  0.74557189    -0.03900
C446        C  0.37548730  0.27528577  0.75280268    -0.08300
C447        C  0.37164409  0.24626880  0.73168529     0.05200
C448        C  0.38639118  0.25509897  0.70293240    -0.03300
Br449      Br  0.38015730  0.21655737  0.67243376    -0.03000
H450        H  0.41499068  0.29828698  0.67317143     0.09100
H451        H  0.36401447  0.26851533  0.77498996     0.07100
Br452      Br  0.39790510  0.35015085  0.77669431    -0.03500
C453        C  0.18447324  0.11287856  0.74235920    -0.10100
C454        C  0.17616155  0.09056474  0.71572689     0.06100
C455        C  0.20471182  0.08487635  0.69985584    -0.03900
C456        C  0.24014755  0.10158660  0.71048642    -0.08300
C457        C  0.24882337  0.12498976  0.73634172     0.05200
C458        C  0.22053960  0.13043562  0.75250295    -0.03300
Br459      Br  0.22986337  0.16172581  0.78831584    -0.03000
H460        H  0.16328212  0.11771587  0.75500061     0.09100
H461        H  0.26192923  0.09784386  0.69759513     0.07100
Br462      Br  0.19941767  0.05666216  0.66275391    -0.03500
C463        C  0.35407000  0.08727271  0.49265374    -0.10100
C464        C  0.38060040  0.13084469  0.97892108     0.06100
C465        C  0.41517880  0.14264854  0.96108317    -0.03900
C466        C  0.43361214  0.12292973  0.95985076    -0.08300
C467        C  0.41748615  0.09027270  0.97475388     0.05200
C468        C  0.38280463  0.07797780  0.99218517    -0.03300
Br469      Br  0.34915114  0.02471872  0.51443750    -0.03000
H470        H  0.32820278  0.07867406  0.50708359     0.09100
H471        H  0.45995051  0.13214364  0.94588990     0.07100
Br472      Br  0.43701974  0.18225719  0.93508572    -0.03500
C473        C  0.38503570  0.30945813  0.98178898    -0.10100
C474        C  0.41560393  0.32348586  0.96001706     0.06100
C475        C  0.42797649  0.29925174  0.94591051    -0.03900
C476        C  0.40885977  0.26161695  0.95288400    -0.08300
C477        C  0.37749383  0.24719187  0.97387411     0.05200
C478        C  0.36586906  0.27164688  0.98870291    -0.03300
Br479      Br  0.32431993  0.24892997  0.52717860    -0.03000
H480        H  0.37522682  0.32763131  0.99296440     0.09100
H481        H  0.41800690  0.24321268  0.94122901     0.07100
Br482      Br  0.47108931  0.31532144  0.91729725    -0.03500
C483        C  0.20579379  0.07689511  0.94133574    -0.10100
C484        C  0.18060941  0.08425147  0.96046716     0.06100
C485        C  0.19389719  0.10785949  0.98624999    -0.03900
C486        C  0.22390839  0.11880829  0.48953573    -0.08300
C487        C  0.25764158  0.12002818  0.97088443     0.05200
C488        C  0.24395932  0.09447025  0.94630830    -0.03300
Br489      Br  0.27665849  0.08515375  0.91741923    -0.03000
H490        H  0.19621751  0.05848440  0.92168123     0.09100
H491        H  0.23352940  0.13609294  0.50965544     0.07100
Br492      Br  0.15338715  0.10886570  0.51494772    -0.03500
C493        C  0.35627333  0.64866884  0.97990041     0.02200
C494        C  0.31676047  0.62678393  0.97810912    -0.14000
C495        C  0.29684588  0.64423261  0.97566339    -0.00300
C496        C  0.31647792  0.68391892  0.97575760    -0.12500
C497        C  0.35567567  0.70626611  0.97871879     0.02200
C498        C  0.37521937  0.68845482  0.98149609    -0.11900
H499        H  0.30171996  0.59603849  0.97738399     0.07800
H500        H  0.30150596  0.69722852  0.97215277     0.05300
H501        H  0.40563951  0.70558820  0.98354120     0.05100
C502        C  0.34935005  0.64586175  0.23560646     0.02200
C503        C  0.30951197  0.62569810  0.23588423    -0.14000
C504        C  0.29025882  0.64480766  0.23671133    -0.00300
C505        C  0.31133721  0.68462526  0.23685521    -0.12500
C506        C  0.35129095  0.70505578  0.23566433     0.02200
C507        C  0.37000801  0.68566403  0.23581334    -0.11900
H508        H  0.29356074  0.59493310  0.23372743     0.07800
H509        H  0.29698435  0.69934324  0.23535159     0.05300
H510        H  0.40093219  0.70147498  0.23431585     0.05100
C511        C  0.14089796  0.84192152  0.36553859     0.02200
C512        C  0.12058908  0.80201740  0.36309263    -0.14000
C513        C  0.13914055  0.78277870  0.36421503    -0.00300
C514        C  0.17845328  0.80344158  0.36656974    -0.12500
C515        C  0.19939468  0.84329254  0.36813563     0.02200
C516        C  0.18040902  0.86240805  0.36762558    -0.11900
H517        H  0.08996289  0.78596162  0.36211881     0.07800
H518        H  0.19225413  0.78852616  0.36913152     0.05300
H519        H  0.19612011  0.89321661  0.36998556     0.05100
C520        C  0.15046309  0.85020128  0.11381167     0.02200
C521        C  0.13028983  0.81068059  0.11549580    -0.14000
C522        C  0.14977720  0.79201171  0.11569013    -0.00300
C523        C  0.18968490  0.81330513  0.11481775    -0.12500
C524        C  0.20992719  0.85290467  0.11395930     0.02200
C525        C  0.19033138  0.87101556  0.11260604    -0.11900
H526        H  0.09941452  0.79467075  0.11794672     0.07800
H527        H  0.20471315  0.79944114  0.11689983     0.05300
H528        H  0.20605027  0.90172273  0.11231738     0.05100
N529        N  0.07775376  0.55125396  0.44763802    -0.07100
N530        N  0.10493825  0.56601461  0.46522441    -0.59200
N531        N  0.05336047  0.57225377  0.39183904    -0.06700
N532        N  0.06651574  0.59891820  0.37365321    -0.61300
N533        N  0.04190703  0.58271701  0.41721642    -0.06300
N534        N  0.04675594  0.61635741  0.41681594    -0.59200
N535        N  0.08853867  0.53991027  0.42235193    -0.06000
N536        N  0.12320838  0.54666916  0.42230841    -0.61700
C537        C  0.13312254  0.56276469  0.44931198     0.95100
C538        C  0.06184129  0.62619806  0.38952455     0.94900
N539        N  0.48425233  0.96757820  0.35254408    -0.07300
N540        N  0.46886932  0.96077100  0.32811569    -0.59800
N541        N  0.05189764  0.96646114  0.38084267    -0.05400
N542        N  0.08049014  0.96081398  0.37611271    -0.61000
N543        N  0.01907259  0.93380068  0.38172593    -0.07300
N544        N  0.02461057  0.90525434  0.37800897    -0.60000
N545        N  0.01639954  0.49741199  0.35079655    -0.05000
N546        N  0.02368975  0.51302962  0.32638939    -0.61100
Mn547      Mn  0.05326321  0.51900950  0.38583951     1.18400
C548        C  0.49470305  0.99153280  0.31338268     0.97200
C549        C  0.06297678  0.92251767  0.37424631     0.97900
N550        N  0.46913230  0.54691615  0.46120659    -0.07300
N551        N  0.46336969  0.57529329  0.46482915    -0.63600
N552        N  0.47457231  0.98285121  0.49390879    -0.06100
N553        N  0.47354358  0.97500071  0.01750551    -0.64300
N554        N  0.00417550  0.51500324  0.49187054    -0.06800
N555        N  0.02806020  0.53166327  0.01747513    -0.63900
N556        N  0.43644759  0.51420591  0.46237566    -0.05700
N557        N  0.40771469  0.51957891  0.46699370    -0.64600
Mn558      Mn  0.02372605  0.54982445  0.45499239     1.10700
C559        C  0.42496403  0.55780457  0.46864176     0.98400
C560        C  0.50369645  0.00020305  0.03255437     0.98500
N561        N  0.44646683  0.89700641  0.42603520    -0.06800
N562        N  0.44075099  0.86285930  0.42597436    -0.62200
N563        N  0.40033710  0.94036703  0.42355009    -0.06100
N564        N  0.36544932  0.93338935  0.42498895    -0.58900
N565        N  0.41028266  0.92970601  0.39760273    -0.07400
N566        N  0.38210556  0.91510787  0.38092584    -0.61800
N567        N  0.43664596  0.90792105  0.45192965    -0.06400
N568        N  0.42393408  0.88126481  0.46995131    -0.58900
Mn569      Mn  0.46441829  0.93105779  0.38874567     1.20200
Mn570      Mn  0.43660309  0.96098153  0.45921746     1.10100
Cl571      Cl  0.49511997  0.99082826  0.42283712    -0.86900
C572        C  0.42710125  0.85342644  0.45354010     0.95400
C573        C  0.35436737  0.91794935  0.39822826     0.95200
N574        N  0.07969982  0.55572788  0.20383223    -0.07100
N575        N  0.10647387  0.57025924  0.22196177    -0.59200
N576        N  0.06152684  0.58073200  0.14657977    -0.06700
N577        N  0.07770690  0.60906506  0.12950886    -0.61300
N578        N  0.04899346  0.59054907  0.17175902    -0.06300
N579        N  0.05610686  0.62523650  0.17228890    -0.59200
N580        N  0.09126807  0.54484169  0.17868058    -0.06000
N581        N  0.12566460  0.55149163  0.17925542    -0.61700
C582        C  0.13498894  0.56700495  0.20631598     0.95100
C583        C  0.07376746  0.63663916  0.14586032     0.94900
N584        N  0.49504194  0.97390758  0.10241303    -0.07300
N585        N  0.48093951  0.96583288  0.07723106    -0.59800
N586        N  0.05976319  0.97394001  0.13574810    -0.05400
N587        N  0.08849970  0.96862666  0.13301527    -0.61000
N588        N  0.02716738  0.94105044  0.13518574    -0.07300
N589        N  0.03300478  0.91269384  0.13167035    -0.60000
N590        N  0.02612259  0.50624668  0.10267298    -0.05000
N591        N  0.03530021  0.52200553  0.07789922    -0.61100
Mn592      Mn  0.05959574  0.52614618  0.14034913     1.18400
C593        C  0.50687445  0.99614251  0.06221584     0.97200
C594        C  0.07131708  0.93032498  0.13056662     0.97900
N595        N  0.47196157  0.55367389  0.21100201    -0.07300
N596        N  0.46686382  0.58248339  0.21357799    -0.63600
N597        N  0.47234047  0.98808171  0.24384833    -0.06100
N598        N  0.46276105  0.97196246  0.26839197    -0.64300
N599        N  0.00163100  0.51791860  0.24391362    -0.06800
N600        N  0.01593028  0.52399667  0.26862814    -0.63900
N601        N  0.43897973  0.52122310  0.21041657    -0.05700
N602        N  0.41072696  0.52717780  0.21294025    -0.64600
Mn603      Mn  0.02589947  0.55522222  0.20832120     1.10700
C604        C  0.42856381  0.56545117  0.21462763     0.98400
C605        C  0.49205298  0.99682355  0.28417860     0.98500
N606        N  0.45096123  0.90392376  0.17687838    -0.06800
N607        N  0.44496785  0.86984968  0.17816618    -0.62200
N608        N  0.40758337  0.94907872  0.16866461    -0.06100
N609        N  0.37399480  0.94396342  0.16718992    -0.58900
N610        N  0.41926270  0.93748612  0.14393027    -0.07400
N611        N  0.39361327  0.92408067  0.12514809    -0.62000
N612        N  0.43831716  0.91473525  0.20152663    -0.06400
N613        N  0.42346379  0.88819019  0.21998707    -0.58900
Mn614      Mn  0.47266108  0.93809078  0.13905260     1.20200
Mn615      Mn  0.43893871  0.96814165  0.20694051     1.10100
Cl616      Cl  0.50051963  0.99804460  0.17357407    -0.86900
C617        C  0.42799863  0.86033217  0.20528154     0.95400
C618        C  0.36556373  0.92854483  0.13988858     0.95200
C619        C  0.11271468  0.68637438  0.11064791    -0.10100
C620        C  0.09057299  0.67587774  0.13741269     0.06100
C621        C  0.08650651  0.70382899  0.15596211    -0.03900
C622        C  0.10540024  0.74102211  0.14794758    -0.08300
C623        C  0.12831512  0.75152606  0.12173852     0.05200
C624        C  0.13145125  0.72377835  0.10274622    -0.03300
Br625      Br  0.15998486  0.73542482  0.06549151    -0.03000
H626        H  0.11591981  0.66558958  0.09588539     0.09100
H627        H  0.10280667  0.76224533  0.16263634     0.07100
Br628      Br  0.05633374  0.69480289  0.19277536    -0.03500
C629        C  0.30114852  0.91816381  0.14948235    -0.10100
C630        C  0.32760324  0.91316629  0.13000937     0.06100
C631        C  0.31557231  0.89086687  0.10354679    -0.03900
C632        C  0.27718615  0.87208352  0.09829788    -0.08300
C633        C  0.25069994  0.87571974  0.11862989     0.05200
C634        C  0.26310363  0.89958493  0.14416734    -0.03300
Br635      Br  0.22887429  0.90519189  0.17401659    -0.03000
H636        H  0.30956070  0.93537341  0.16975366     0.09100
H637        H  0.26779033  0.85408049  0.07844987     0.07100
Br638      Br  0.34905090  0.88397044  0.07376324    -0.03500
C639        C  0.13809798  0.89892002  0.14021626    -0.10100
C640        C  0.13006558  0.87058289  0.11733767     0.06100
C641        C  0.10245274  0.86197282  0.09891029    -0.03900
C642        C  0.08336510  0.88157611  0.10367510    -0.08300
C643        C  0.09173703  0.91011309  0.12640336     0.05200
C644        C  0.11913442  0.91853084  0.14490255    -0.03300
Br645      Br  0.12922213  0.95395821  0.17838742    -0.03000
H646        H  0.15860998  0.90523207  0.15490672     0.09100
H647        H  0.06239581  0.87498054  0.08930388     0.07100
Br648      Br  0.09124158  0.82524070  0.06615691    -0.03500
C649        C  0.08683809  0.69395916  0.40382213    -0.10100
C650        C  0.07848000  0.66526795  0.38118479     0.06100
C651        C  0.08823394  0.67542767  0.35220619    -0.03900
C652        C  0.10725813  0.71391473  0.34666426    -0.08300
C653        C  0.11666618  0.74226500  0.36962705     0.05200
C654        C  0.10600577  0.73197375  0.39829757    -0.03300
Br655      Br  0.11879329  0.76903780  0.43092793    -0.03000
H656        H  0.07982624  0.68714461  0.42620279     0.09100
H657        H  0.11520404  0.72176749  0.32453544     0.07100
Br658      Br  0.07567967  0.63848985  0.31950434    -0.03500
C659        C  0.25090002  0.88973692  0.39922105    -0.10100
C660        C  0.23990050  0.86467298  0.37422180     0.06100
C661        C  0.26718717  0.85896066  0.35655473    -0.03900
C662        C  0.30437234  0.87740229  0.36444922    -0.08300
C663        C  0.31528730  0.90164995  0.38996064     0.05200
C664        C  0.28805106  0.90820103  0.40726029    -0.03300
Br665      Br  0.29877402  0.94189928  0.44197781    -0.03000
H666        H  0.23014194  0.89430195  0.41299871     0.09100
H667        H  0.32465858  0.87211731  0.35068972     0.07100
Br668      Br  0.25556074  0.82703484  0.32102332    -0.03500
C669        C  0.13189354  0.88962087  0.34817906    -0.10100
C670        C  0.12057158  0.86227583  0.36776205     0.06100
C671        C  0.09042915  0.85531603  0.38944902    -0.03900
C672        C  0.07162959  0.87473553  0.39069954    -0.08300
C673        C  0.08301603  0.90205622  0.37122000     0.05200
C674        C  0.11343314  0.90956054  0.34981445    -0.03300
Br675      Br  0.12935200  0.94504258  0.32135793    -0.03000
H676        H  0.15488546  0.89520362  0.33145225     0.09100
H677        H  0.04881926  0.86935011  0.40751862     0.07100
Br678      Br  0.07546737  0.82206503  0.41944950    -0.03500
C679        C  0.37910883  0.57614192  0.24196775    -0.10100
C680        C  0.40839419  0.58591598  0.21940738     0.06100
C681        C  0.41797596  0.61511374  0.20215699    -0.03900
C682        C  0.39862792  0.63440089  0.20795259    -0.08300
C683        C  0.36968859  0.62519704  0.23090755     0.05200
C684        C  0.36001124  0.59568445  0.24803331    -0.03300
Br685      Br  0.32276552  0.58228506  0.28102631    -0.03000
H686        H  0.37170508  0.55379847  0.25543287     0.09100
H687        H  0.40576687  0.65626399  0.19408622     0.07100
Br688      Br  0.45519998  0.62778756  0.16920679    -0.03500
C689        C  0.41162205  0.79366392  0.19494885    -0.10100
C690        C  0.41137028  0.82184583  0.21530601     0.06100
C691        C  0.39300072  0.81144182  0.24349869    -0.03900
C692        C  0.37417394  0.77339278  0.25004160    -0.08300
C693        C  0.37357015  0.74540821  0.22918263     0.05200
C694        C  0.39280058  0.75589519  0.20153083    -0.03300
Br695      Br  0.39156487  0.71916520  0.17104659    -0.03000
H696        H  0.42532325  0.80059130  0.17322920     0.09100
H697        H  0.35956132  0.76549260  0.27142700     0.07100
Br698      Br  0.39203889  0.84692801  0.27424157    -0.03500
C699        C  0.18365564  0.60602080  0.24213628    -0.10100
C700        C  0.17375537  0.58357188  0.21564556     0.06100
C701        C  0.20222184  0.57950664  0.19767314    -0.03900
C702        C  0.23940726  0.59919508  0.20550790    -0.08300
C703        C  0.24953021  0.62274058  0.23118103     0.05200
C704        C  0.22116628  0.62541674  0.24999997    -0.03300
Br705      Br  0.23221359  0.65414863  0.28689148    -0.03000
H706        H  0.16242929  0.60910253  0.25655694     0.09100
H707        H  0.26095591  0.59668608  0.19102557     0.07100
Br708      Br  0.19397277  0.54816461  0.16182070    -0.03500
C709        C  0.36451851  0.59980901  0.99590715    -0.10100
C710        C  0.36776292  0.61876807  0.47762980     0.06100
C711        C  0.40113957  0.62962393  0.45848541    -0.03900
C712        C  0.41963377  0.60985699  0.45662913    -0.08300
C713        C  0.40472651  0.57813756  0.47241420     0.05200
C714        C  0.37086070  0.56647479  0.49088954    -0.03300
Br715      Br  0.36252303  0.53931046  0.01878603    -0.03000
H716        H  0.33988814  0.59224640  0.01156788     0.09100
H717        H  0.44518982  0.61849453  0.44179846     0.07100
Br718      Br  0.42114220  0.66839593  0.43199888    -0.03500
C719        C  0.38494116  0.80350823  0.48784165    -0.10100
C720        C  0.41128580  0.81507962  0.46307936     0.06100
C721        C  0.41947875  0.78863641  0.44686405    -0.03900
C722        C  0.39933274  0.75109234  0.45423563    -0.08300
C723        C  0.37151894  0.73908948  0.47793278     0.05200
C724        C  0.36515862  0.76588430  0.49535140    -0.03300
Br725      Br  0.32772416  0.75734227  0.02126721    -0.03000
H726        H  0.37875112  0.82341806  0.50097047     0.09100
H727        H  0.40473611  0.73088429  0.44085793     0.07100
Br728      Br  0.45799605  0.80124283  0.41470364    -0.03500
C729        C  0.19976687  0.57816963  0.43785705    -0.10100
C730        C  0.17186009  0.57915130  0.45846744     0.06100
C731        C  0.18260498  0.59766818  0.48632295    -0.03900
C732        C  0.23118283  0.62972909  0.99006527    -0.08300
C733        C  0.24837878  0.61569407  0.47130134     0.05200
C734        C  0.23761503  0.59621831  0.44400614    -0.03300
Br735      Br  0.27408610  0.59577923  0.41362600    -0.03000
H736        H  0.19249550  0.56421949  0.41640606     0.09100
H737        H  0.24199222  0.65059668  0.00837796     0.07100
Br738      Br  0.16376514  0.62926024  0.01116905    -0.03500
C739        C  0.34712487  0.63893790  0.48046272     0.02200
C740        C  0.30770711  0.61835049  0.47808336    -0.14000
C741        C  0.28865722  0.63731348  0.47761223    -0.00300
C742        C  0.30912199  0.67718277  0.47985310    -0.12500
C743        C  0.34847839  0.69806962  0.48249394     0.02200
C744        C  0.36691373  0.67875554  0.48390264    -0.11900
H745        H  0.29210653  0.58756025  0.47509786     0.07800
H746        H  0.29494963  0.69179886  0.47754094     0.05300
H747        H  0.39729859  0.69495174  0.48609379     0.05100
C748        C  0.34812358  0.64796587  0.74046160     0.02200
C749        C  0.30813221  0.62959063  0.74098949    -0.14000
C750        C  0.29095502  0.64980252  0.73795254    -0.00300
C751        C  0.31388520  0.68929455  0.73629249    -0.12500
C752        C  0.35358622  0.70819490  0.73612176     0.02200
C753        C  0.37046722  0.68740516  0.73770862    -0.11900
H754        H  0.29026524  0.59912876  0.74224640     0.07800
H755        H  0.30120844  0.70494343  0.73286732     0.05300
H756        H  0.40126509  0.70190288  0.73503031     0.05100
C757        C  0.15365840  0.85635162  0.86560809     0.02200
C758        C  0.13336931  0.81688283  0.86747367    -0.14000
C759        C  0.15280617  0.79848198  0.86855436    -0.00300
C760        C  0.19270733  0.81973318  0.86765914    -0.12500
C761        C  0.21323358  0.85924694  0.86561606     0.02200
C762        C  0.19349873  0.87728586  0.86425767    -0.11900
H763        H  0.10245603  0.80078347  0.86929517     0.07800
H764        H  0.20754877  0.80584067  0.87015614     0.05300
H765        H  0.20903116  0.90792834  0.86364817     0.05100
C766        C  0.14960281  0.84923055  0.60805967     0.02200
C767        C  0.12800810  0.80928194  0.60718114    -0.14000
C768        C  0.14538656  0.78870462  0.60838964    -0.00300
C769        C  0.18477964  0.80860915  0.61076639    -0.12500
C770        C  0.20666122  0.84836360  0.61186071     0.02200
C771        C  0.18914651  0.86845453  0.60988150    -0.11900
H772        H  0.09731712  0.79426929  0.60735838     0.07800
H773        H  0.19801010  0.79339516  0.61395483     0.05300
H774        H  0.20605970  0.89929835  0.61144945     0.05100
N775        N  0.08645497  0.56154755  0.94898225    -0.07100
N776        N  0.11291429  0.57467202  0.96694334    -0.59200
N777        N  0.06342474  0.58547718  0.89398056    -0.06700
N778        N  0.07810071  0.61337479  0.87670920    -0.61300
N779        N  0.05219644  0.59543882  0.91970742    -0.06300
N780        N  0.05879918  0.63002914  0.92038004    -0.59200
N781        N  0.09766816  0.55140787  0.92334971    -0.06000
N782        N  0.13196490  0.55736128  0.92341151    -0.61700
C783        C  0.14115373  0.57183442  0.95079179     0.95100
C784        C  0.07463867  0.64092823  0.89338530     0.94900
N785        N  0.49600305  0.97959687  0.85161797    -0.07300
N786        N  0.47991390  0.97227358  0.82753935    -0.59800
N787        N  0.06266530  0.97814974  0.88039875    -0.05400
N788        N  0.09142865  0.97281522  0.87618390    -0.61000
N789        N  0.02994604  0.94536406  0.88110382    -0.07300
N790        N  0.03572437  0.91697447  0.87762195    -0.60000
N791        N  0.02639233  0.51084514  0.85111171    -0.05000
N792        N  0.03323958  0.52582459  0.82637881    -0.61100
Mn793      Mn  0.06316530  0.53198228  0.88655745     1.18400
C794        C  0.50477148  0.00284405  0.81253047     0.97200
C795        C  0.07412707  0.93460336  0.87434240     0.97900
N796        N  0.47852679  0.55754320  0.96281800    -0.07300
N797        N  0.47298000  0.58604582  0.96669486    -0.63600
N798        N  0.48151233  0.99071174  0.99292792    -0.06100
N799        N  0.46813193  0.96847813  0.51884026    -0.64300
N800        N  0.01273489  0.52409556  0.99287386    -0.06800
N801        N  0.01998053  0.52386055  0.51635666    -0.63900
N802        N  0.44578335  0.52483851  0.96336633    -0.05700
N803        N  0.41714930  0.53038041  0.96788619    -0.64600
Mn804      Mn  0.03292321  0.56048544  0.95664454     1.10700
C805        C  0.43463083  0.56867292  0.97007848     0.98400
C806        C  0.49886366  0.99486622  0.53288018     0.98500
N807        N  0.45504775  0.90723806  0.92382560    -0.06800
N808        N  0.44782837  0.87242887  0.92324400    -0.62200
N809        N  0.41133468  0.95303108  0.92035602    -0.06100
N810        N  0.37764068  0.94846126  0.92037624    -0.58900
N811        N  0.42207416  0.94255401  0.89466584    -0.07400
N812        N  0.39579599  0.93064138  0.87667901    -0.61800
N813        N  0.44393107  0.91743769  0.94948005    -0.06400
N814        N  0.42888007  0.88968099  0.96685367    -0.58900
Mn815      Mn  0.47539348  0.94274656  0.88721605     1.20200
Mn816      Mn  0.44536486  0.97119329  0.95722905     1.10100
Cl817      Cl  0.50528812  0.00172130  0.92213064    -0.86900
C818        C  0.43197239  0.86190737  0.95029292     0.95400
C819        C  0.36834813  0.93490650  0.89295640     0.95200
N820        N  0.08158235  0.56135170  0.70003795    -0.07100
N821        N  0.10906986  0.57758261  0.71761496    -0.59200
N822        N  0.05753783  0.58005386  0.64291431    -0.06700
N823        N  0.07106599  0.60605937  0.62414656    -0.61300
N824        N  0.04593734  0.59138351  0.66785374    -0.06300
N825        N  0.05132544  0.62514134  0.66655399    -0.59200
N826        N  0.09260461  0.54934125  0.67515549    -0.06000
N827        N  0.12764339  0.55717147  0.67538868    -0.61700
C828        C  0.13768690  0.57453629  0.70206098     0.95100
C829        C  0.06655913  0.63389776  0.63910505     0.94900
N830        N  0.49338059  0.97279210  0.60327487    -0.07300
N831        N  0.47816616  0.96329817  0.57848931    -0.59800
N832        N  0.06022913  0.97548209  0.63609863    -0.05400
N833        N  0.08909283  0.97018971  0.63203202    -0.61000
N834        N  0.02762874  0.94254545  0.63620730    -0.07300
N835        N  0.03361891  0.91424335  0.63190555    -0.60000
N836        N  0.02161868  0.50410450  0.60187800    -0.05000
N837        N  0.02926751  0.51818564  0.57658954    -0.61100
Mn838      Mn  0.05776254  0.52693817  0.63804760     1.18400
C839        C  0.50354301  0.99260977  0.56244121     0.97200
C840        C  0.07201331  0.93186064  0.62958982     0.97900
N841        N  0.47134712  0.55552855  0.71165832    -0.07300
N842        N  0.46470586  0.58344427  0.71678645    -0.63600
N843        N  0.47626747  0.99495239  0.74411572    -0.06100
N844        N  0.46936254  0.98034962  0.76901913    -0.64300
N845        N  0.00646541  0.52432251  0.74292602    -0.06800
N846        N  0.02249966  0.53288272  0.76722706    -0.63900
N847        N  0.43896763  0.52242662  0.71200575    -0.05700
N848        N  0.40979261  0.52712405  0.71720435    -0.64600
Mn849      Mn  0.02672225  0.55902912  0.70611759     1.10700
C850        C  0.42612526  0.56526844  0.71993040     0.98400
C851        C  0.49963860  0.00671614  0.78351618     0.98500
N852        N  0.45303078  0.90692932  0.67918798    -0.06800
N853        N  0.44766225  0.87322330  0.68074287    -0.62200
N854        N  0.40603766  0.94809933  0.67051188    -0.06100
N855        N  0.37089198  0.93972033  0.66982113    -0.58900
N856        N  0.41768689  0.93622112  0.64588363    -0.07400
N857        N  0.39053547  0.91945981  0.62803689    -0.62000
N858        N  0.44085573  0.91820101  0.70384864    -0.06400
N859        N  0.42672837  0.89206193  0.72261174    -0.58900
Mn860      Mn  0.47256247  0.93890464  0.64066592     1.20200
Mn861      Mn  0.44028538  0.97118116  0.70786672     1.10100
Cl862      Cl  0.50091311  0.00046138  0.67334045    -0.86900
C863        C  0.43145596  0.86418816  0.70801500     0.95400
C864        C  0.36145513  0.92198921  0.64310661     0.95200
C865        C  0.11091865  0.68368412  0.60528711    -0.10100
C866        C  0.08226973  0.67171357  0.62853635     0.06100
C867        C  0.07164375  0.69739497  0.64253718    -0.03900
C868        C  0.09141531  0.73470346  0.63455635    -0.08300
C869        C  0.12173524  0.74739509  0.61263534     0.05200
C870        C  0.13066357  0.72109299  0.59731301    -0.03300
Br871      Br  0.16938625  0.73443965  0.56533339    -0.03000
H872        H  0.11910374  0.66434657  0.59390477     0.09100
H873        H  0.08399770  0.75437378  0.64646578     0.07100
Br874      Br  0.03064728  0.68409626  0.67278867    -0.03500
C875        C  0.29449698  0.90632603  0.65311448    -0.10100
C876        C  0.32258363  0.90420383  0.63344301     0.06100
C877        C  0.31196317  0.88387530  0.60604027    -0.03900
C878        C  0.27428374  0.86647430  0.59919136    -0.08300
C879        C  0.24664555  0.86878484  0.61900423     0.05200
C880        C  0.25693947  0.88863597  0.64626131    -0.03300
Br881      Br  0.22000856  0.88988871  0.67575933    -0.03000
H882        H  0.30141637  0.92110086  0.67438364     0.09100
H883        H  0.26636743  0.85071447  0.57831743     0.07100
Br884      Br  0.34642543  0.87770149  0.57684796    -0.03500
C885        C  0.13916296  0.89909803  0.63530143    -0.10100
C886        C  0.13034826  0.87108642  0.61201819     0.06100
C887        C  0.10230529  0.86363037  0.59431798    -0.03900
C888        C  0.08346503  0.88356272  0.60047848    -0.08300
C889        C  0.09255393  0.91155862  0.62371317     0.05200
C890        C  0.12067994  0.91923739  0.64116817    -0.03300
Br891      Br  0.13256091  0.95449884  0.67483817    -0.03000
H892        H  0.15982789  0.90466579  0.64957474     0.09100
H893        H  0.06205013  0.87761279  0.58677933     0.07100
Br894      Br  0.08994236  0.82823299  0.56062553    -0.03500
C895        C  0.10111636  0.70922733  0.90846458    -0.10100
C896        C  0.09239087  0.68060378  0.88566223     0.06100
C897        C  0.10247164  0.69119932  0.85678670    -0.03900
C898        C  0.12184926  0.72975369  0.85146041    -0.08300
C899        C  0.13130012  0.75802549  0.87444674     0.05200
C900        C  0.12052411  0.74749000  0.90308560    -0.03300
Br901      Br  0.13281327  0.78450145  0.93569062    -0.03000
H902        H  0.09382864  0.70206502  0.93076645     0.09100
H903        H  0.12970580  0.73772203  0.82936136     0.07100
Br904      Br  0.08961882  0.65480617  0.82373148    -0.03500
C905        C  0.26683671  0.91026527  0.89275415    -0.10100
C906        C  0.25439365  0.88230527  0.86952948     0.06100
C907        C  0.28096704  0.87564032  0.85178207    -0.03900
C908        C  0.31858202  0.89460432  0.85888811    -0.08300
C909        C  0.33042131  0.92057462  0.88347408     0.05200
C910        C  0.30448808  0.92970606  0.89966787    -0.03300
Br911      Br  0.31808166  0.96856240  0.93118217    -0.03000
H912        H  0.24681926  0.91626891  0.90616356     0.09100
H913        H  0.33823415  0.88797074  0.84562397     0.07100
Br914      Br  0.26742452  0.84151499  0.81742145    -0.03500
C915        C  0.13548955  0.89431128  0.84398262    -0.10100
C916        C  0.13323498  0.87637483  0.86784442     0.06100
C917        C  0.11256926  0.87890431  0.89397984    -0.03900
C918        C  0.09277097  0.89734915  0.89547100    -0.08300
C919        C  0.09458012  0.91477367  0.87154195     0.05200
C920        C  0.11658326  0.91381058  0.84579314    -0.03300
Br921      Br  0.12090246  0.93803326  0.81255843    -0.03000
H922        H  0.15193547  0.89314106  0.82403219     0.09100
H923        H  0.07680418  0.89901478  0.91556220     0.07100
Br924      Br  0.11305490  0.86039230  0.92881032    -0.03500
C925        C  0.41978415  0.61891259  0.74425854    -0.10100
C926        C  0.40458758  0.58470651  0.72660409     0.06100
C927        C  0.36904029  0.56977285  0.71593775    -0.03900
C928        C  0.35114150  0.59049479  0.72109402    -0.08300
C929        C  0.36665609  0.62534073  0.73816545     0.05200
C930        C  0.40068154  0.63854120  0.75089550    -0.03300
Br931      Br  0.42110788  0.68108849  0.77940133    -0.03000
H932        H  0.44621295  0.62993182  0.75366070     0.09100
H933        H  0.32529469  0.57950040  0.71086947     0.07100
Br934      Br  0.34394514  0.52220679  0.69291070    -0.03500
C935        C  0.41915593  0.79882260  0.69839501    -0.10100
C936        C  0.41557223  0.82587123  0.71805913     0.06100
C937        C  0.39453727  0.81432012  0.74529866    -0.03900
C938        C  0.37533489  0.77600015  0.75111811    -0.08300
C939        C  0.37745955  0.74894046  0.73067802     0.05200
C940        C  0.40047112  0.76083869  0.70444488    -0.03300
Br941      Br  0.40493303  0.72588596  0.67500593    -0.03000
H942        H  0.43550052  0.80680287  0.67754961     0.09100
H943        H  0.35818589  0.76711382  0.77159191     0.07100
Br944      Br  0.39036479  0.84858525  0.77560822    -0.03500
C945        C  0.18652193  0.61760903  0.73681263    -0.10100
C946        C  0.17645017  0.59186747  0.71192104     0.06100
C947        C  0.20429297  0.58466514  0.69667025    -0.03900
C948        C  0.24051854  0.60271805  0.70643939    -0.08300
C949        C  0.25068995  0.62893370  0.73081873     0.05200
C950        C  0.22328070  0.63643658  0.74604147    -0.03300
Br951      Br  0.23441222  0.67181843  0.77965763    -0.03000
H952        H  0.16603484  0.62390474  0.74885641     0.09100
H953        H  0.26148309  0.59720390  0.69422147     0.07100
Br954      Br  0.19630031  0.55152766  0.66190307    -0.03500
C955        C  0.35301791  0.58707739  0.49359805    -0.10100
C956        C  0.37773718  0.62958355  0.97819184     0.06100
C957        C  0.40978368  0.63888538  0.95787795    -0.03900
C958        C  0.42839096  0.61928551  0.95632173    -0.08300
C959        C  0.41474407  0.58922892  0.97366007     0.05200
C960        C  0.38243747  0.57934374  0.99356001    -0.03300
Br961      Br  0.34845828  0.52382213  0.51387235    -0.03000
H962        H  0.32737793  0.57826561  0.50834168     0.09100
H963        H  0.45285635  0.62655308  0.94052349     0.07100
Br964      Br  0.42735687  0.67495349  0.92947818    -0.03500
C965        C  0.38590297  0.81002013  0.98203946    -0.10100
C966        C  0.41527366  0.82316620  0.95929284     0.06100
C967        C  0.42660666  0.79826976  0.94479099    -0.03900
C968        C  0.40744120  0.76081297  0.95219201    -0.08300
C969        C  0.37715725  0.74726032  0.97408211     0.05200
C970        C  0.36684792  0.77243947  0.98949836    -0.03300
Br971      Br  0.33035484  0.75264071  0.52974228    -0.03000
H972        H  0.37705136  0.82874293  0.99368427     0.09100
H973        H  0.41569681  0.74186364  0.94020581     0.07100
Br974      Br  0.46846585  0.81316280  0.91515630    -0.03500
C975        C  0.20358073  0.57704921  0.94249835    -0.10100
C976        C  0.17920320  0.58675811  0.96023551     0.06100
C977        C  0.19316955  0.61280088  0.98480708    -0.03900
C978        C  0.22067544  0.61593176  0.49229757    -0.08300
C979        C  0.25586973  0.62143562  0.97142433     0.05200
C980        C  0.24160679  0.59418266  0.94774732    -0.03300
Br981      Br  0.27327732  0.58193919  0.92006931    -0.03000
H982        H  0.19347458  0.55703590  0.92366160     0.09100
H983        H  0.22882803  0.63068918  0.51343643     0.07100
Br984      Br  0.14766200  0.59968904  0.51745226    -0.03500
C985        C  0.85855437  0.14931316  0.97979216     0.02200
C986        C  0.81916426  0.12677075  0.97722552    -0.14000
C987        C  0.79861208  0.14353437  0.97484635    -0.00300
C988        C  0.81751253  0.18309635  0.97479121    -0.12500
C989        C  0.85654435  0.20613239  0.97828478     0.02200
C990        C  0.87656189  0.18906485  0.98184017    -0.11900
H991        H  0.80457215  0.09603398  0.97603577     0.07800
H992        H  0.80204466  0.19573609  0.97085525     0.05300
H993        H  0.90662504  0.20686919  0.98504465     0.05100
C994        C  0.85032742  0.14652874  0.24058001     0.02200
C995        C  0.81050510  0.12564926  0.23992916    -0.14000
C996        C  0.79103037  0.14416519  0.23896535    -0.00300
C997        C  0.81168076  0.18374733  0.23821185    -0.12500
C998        C  0.85141771  0.20482289  0.23795381     0.02200
C999        C  0.87052015  0.18630168  0.23998404    -0.11900
H1000       H  0.79491979  0.09490779  0.23840207     0.07800
H1001       H  0.79714853  0.19781016  0.23529332     0.05300
H1002       H  0.90141547  0.20263323  0.23918164     0.05100
C1003       C  0.64111598  0.34133464  0.36291909     0.02200
C1004       C  0.62129218  0.30154648  0.36193470    -0.14000
C1005       C  0.64057750  0.28319989  0.36340728    -0.00300
C1006       C  0.68025164  0.30452808  0.36418157    -0.12500
C1007       C  0.70084409  0.34425378  0.36365362     0.02200
C1008       C  0.68097847  0.36245443  0.36304505    -0.11900
H1009       H  0.59052271  0.28496578  0.36189830     0.07800
H1010       H  0.69469406  0.29037132  0.36704728     0.05300
H1011       H  0.69637841  0.39323250  0.36400239     0.05100
C1012       C  0.64787621  0.34880861  0.10944613     0.02200
C1013       C  0.62912115  0.30944549  0.11125903    -0.14000
C1014       C  0.64990566  0.29214980  0.11169884    -0.00300
C1015       C  0.68983557  0.31474549  0.11044600    -0.12500
C1016       C  0.70883117  0.35415278  0.10888280     0.02200
C1017       C  0.68784032  0.37087671  0.10765879    -0.11900
H1018       H  0.59826604  0.29257570  0.11414326     0.07800
H1019       H  0.70591847  0.30216997  0.11301788     0.05300
H1020       H  0.70251045  0.40152476  0.10749133     0.05100
N1021       N  0.57916383  0.05214877  0.44845424    -0.07100
N1022       N  0.60642502  0.06632168  0.46585342    -0.59200
N1023       N  0.55414129  0.07388204  0.39359715    -0.06700
N1024       N  0.56678178  0.10048756  0.37548207    -0.61300
N1025       N  0.54307811  0.08429422  0.41916100    -0.06300
N1026       N  0.54788867  0.11799285  0.41903345    -0.59200
N1027       N  0.58948509  0.04077459  0.42300787    -0.06000
N1028       N  0.62392768  0.04695166  0.42259053    -0.61700
C1029       C  0.63418206  0.06276120  0.44954445     0.95100
C1030       C  0.56230783  0.12772164  0.39162636     0.94900
N1031       N  0.98357573  0.46475128  0.35120120    -0.07300
N1032       N  0.96773393  0.45738390  0.32690062    -0.59800
N1033       N  0.55088491  0.46482166  0.38070172    -0.05400
N1034       N  0.57952415  0.45927979  0.37568970    -0.61000
N1035       N  0.51809572  0.43212388  0.38185464    -0.07300
N1036       N  0.52373087  0.40364218  0.37798119    -0.60000
N1037       N  0.51720913  0.00010582  0.35238058    -0.05000
N1038       N  0.52500287  0.01624496  0.32817157    -0.61100
Mn1039     Mn  0.55415398  0.02069693  0.38689731     1.18400
C1040       C  0.99318188  0.48787062  0.31183440     0.97200
C1041       C  0.56210346  0.42102211  0.37392796     0.97900
N1042       N  0.97077665  0.04759823  0.46340345    -0.07300
N1043       N  0.96480490  0.07578992  0.46638625    -0.63600
N1044       N  0.97144119  0.48224652  0.49281074    -0.06100
N1045       N  0.97241653  0.47578824  0.01760783    -0.64300
N1046       N  0.50696624  0.01587478  0.49291129    -0.06800
N1047       N  0.52937815  0.03069002  0.01760742    -0.63900
N1048       N  0.93822505  0.01477347  0.46478601    -0.05700
N1049       N  0.90934369  0.01992170  0.46888374    -0.64600
Mn1050     Mn  0.52545436  0.05089406  0.45651918     1.10700
C1051       C  0.92639834  0.05812043  0.47004127     0.98400
C1052       C  0.00260118  0.50119488  0.03255185     0.98500
N1053       N  0.94440098  0.39593231  0.42578611    -0.06800
N1054       N  0.93885031  0.36199042  0.42642286    -0.62200
N1055       N  0.89921656  0.43982894  0.42077852    -0.06100
N1056       N  0.86519281  0.43456481  0.42071912    -0.58900
N1057       N  0.90983864  0.42867417  0.39532009    -0.07400
N1058       N  0.88317147  0.41555580  0.37746716    -0.61800
N1059       N  0.93375081  0.40704495  0.45125013    -0.06400
N1060       N  0.92065343  0.38075579  0.46970118    -0.58900
Mn1061     Mn  0.96344737  0.42934055  0.38794699     1.20200
Mn1062     Mn  0.93430037  0.46031030  0.45741944     1.10100
Cl1063     Cl  0.99371644  0.48955634  0.42157944    -0.86900
C1064       C  0.92450879  0.35295441  0.45397485     0.95400
C1065       C  0.85557338  0.41977866  0.39349882     0.95200
N1066       N  0.58275053  0.05879553  0.20294524    -0.07100
N1067       N  0.60965846  0.07342886  0.22089312    -0.59200
N1068       N  0.56233016  0.08201736  0.14606922    -0.06700
N1069       N  0.57818218  0.10995870  0.12869994    -0.61300
N1070       N  0.55022929  0.09224304  0.17130033    -0.06300
N1071       N  0.55739009  0.12696085  0.17150690    -0.59200
N1072       N  0.59427710  0.04807887  0.17769360    -0.06000
N1073       N  0.62882220  0.05494948  0.17799893    -0.61700
C1074       C  0.63820601  0.07047289  0.20503558     0.95100
C1075       C  0.57458024  0.13780820  0.14481727     0.94900
N1076       N  0.99332939  0.47353962  0.10199262    -0.07300
N1077       N  0.97946670  0.46637795  0.07685033    -0.59800
N1078       N  0.55596320  0.47102191  0.13616094    -0.05400
N1079       N  0.58406765  0.46484832  0.13394762    -0.61000
N1080       N  0.52300632  0.43852044  0.13506676    -0.07300
N1081       N  0.52800020  0.40962060  0.13168160    -0.60000
N1082       N  0.52744706  0.00698582  0.10278348    -0.05000
N1083       N  0.53617029  0.02210308  0.07781283    -0.61100
Mn1084     Mn  0.56174265  0.02821431  0.13995390     1.18400
C1085       C  0.00585741  0.49677155  0.06212702     0.97200
C1086       C  0.56614411  0.42647501  0.13128028     0.97900
N1087       N  0.97406719  0.05508216  0.21236884    -0.07300
N1088       N  0.96854716  0.08368002  0.21678231    -0.63600
N1089       N  0.96852389  0.48560481  0.24317841    -0.06100
N1090       N  0.95953724  0.46886984  0.26741008    -0.64300
N1091       N  0.50527901  0.02058355  0.24453536    -0.06800
N1092       N  0.51887855  0.02740579  0.26972681    -0.63900
N1093       N  0.94122496  0.02243761  0.21210491    -0.05700
N1094       N  0.91263403  0.02813092  0.21672418    -0.64600
Mn1095     Mn  0.52853147  0.05747415  0.20840995     1.10700
C1096       C  0.93015417  0.06645284  0.21935273     0.98400
C1097       C  0.98943792  0.49325187  0.28292295     0.98500
N1098       N  0.94563314  0.40146105  0.17551282    -0.06800
N1099       N  0.93859088  0.36692629  0.17673408    -0.62200
N1100       N  0.90443774  0.44855442  0.16709803    -0.06100
N1101       N  0.87124390  0.44424769  0.16525489    -0.58900
N1102       N  0.91635432  0.43724369  0.14233778    -0.07400
N1103       N  0.89127181  0.42481110  0.12320092    -0.62000
N1104       N  0.93332009  0.41259521  0.20016379    -0.06400
N1105       N  0.91774052  0.38595474  0.21855808    -0.58900
Mn1106     Mn  0.96920010  0.43672499  0.13811838     1.20200
Mn1107     Mn  0.93538119  0.46657777  0.20576915     1.10100
Cl1108     Cl  0.99758762  0.49618496  0.17312016    -0.86900
C1109       C  0.92125121  0.35754849  0.20381439     0.95400
C1110       C  0.86331672  0.42964291  0.13769949     0.95200
C1111       C  0.61664317  0.18755202  0.11019496    -0.10100
C1112       C  0.59189328  0.17690513  0.13583755     0.06100
C1113       C  0.58601573  0.20461203  0.15285111    -0.03900
C1114       C  0.60457070  0.24139259  0.14402325    -0.08300
C1115       C  0.62965348  0.25202161  0.11876007     0.05200
C1116       C  0.63574477  0.22474365  0.10176639    -0.03300
Br1117     Br  0.66926708  0.23652954  0.06666453    -0.03000
H1118       H  0.62185221  0.16710607  0.09683713     0.09100
H1119       H  0.60011704  0.26228958  0.15749182     0.07100
Br1120     Br  0.55412855  0.19584885  0.18877400    -0.03500
C1121       C  0.79810193  0.41773404  0.14702407    -0.10100
C1122       C  0.82576523  0.41518323  0.12721042     0.06100
C1123       C  0.81534111  0.39613651  0.09947554    -0.03900
C1124       C  0.77722708  0.37738360  0.09335096    -0.08300
C1125       C  0.74948171  0.37819764  0.11403110     0.05200
C1126       C  0.76040736  0.39951078  0.14073115    -0.03300
Br1127     Br  0.72441477  0.40188554  0.17061073    -0.03000
H1128       H  0.80526094  0.43261708  0.16822166     0.09100
H1129       H  0.76902810  0.36149274  0.07257407     0.07100
Br1130     Br  0.85090563  0.39416849  0.06895596    -0.03500
C1131       C  0.63409509  0.39546293  0.13801759    -0.10100
C1132       C  0.62600221  0.36781608  0.11459400     0.06100
C1133       C  0.59663614  0.35824991  0.09760224    -0.03900
C1134       C  0.57688430  0.37719427  0.10371218    -0.08300
C1135       C  0.58592709  0.40562172  0.12659516     0.05200
C1136       C  0.61414736  0.41406208  0.14424597    -0.03300
Br1137     Br  0.62413739  0.44811110  0.17858942    -0.03000
H1138       H  0.65549807  0.40205006  0.15192321     0.09100
H1139       H  0.55499725  0.37031200  0.09016158     0.07100
Br1140     Br  0.58353764  0.32098165  0.06511859    -0.03500
C1141       C  0.59252711  0.19636328  0.40528056    -0.10100
C1142       C  0.57919318  0.16671382  0.38323389     0.06100
C1143       C  0.58410848  0.17557419  0.35432542    -0.03900
C1144       C  0.60397082  0.21377639  0.34793199    -0.08300
C1145       C  0.61868631  0.24313053  0.37005724     0.05200
C1146       C  0.61204959  0.23416098  0.39893339    -0.03300
Br1147     Br  0.62919919  0.27264205  0.43060329    -0.03000
H1148       H  0.58873444  0.19031074  0.42762963     0.09100
H1149       H  0.60804991  0.22058995  0.32577349     0.07100
Br1150     Br  0.56261666  0.13703928  0.32320478    -0.03500
C1151       C  0.75428411  0.39552605  0.39121034    -0.10100
C1152       C  0.74194325  0.36689707  0.36837818     0.06100
C1153       C  0.76853413  0.35905229  0.35192770    -0.03900
C1154       C  0.80581557  0.37782707  0.35975302    -0.08300
C1155       C  0.81752124  0.40474794  0.38379124     0.05200
C1156       C  0.79164201  0.41465372  0.39886626    -0.03300
Br1157     Br  0.80499586  0.45425939  0.42975736    -0.03000
H1158       H  0.73440817  0.40231979  0.40380767     0.09100
H1159       H  0.82538007  0.37043496  0.34738626     0.07100
Br1160     Br  0.75588085  0.32364095  0.31824319    -0.03500
C1161       C  0.63141540  0.38906286  0.34659853    -0.10100
C1162       C  0.62016371  0.36111552  0.36560845     0.06100
C1163       C  0.58988253  0.35346068  0.38737779    -0.03900
C1164       C  0.57092111  0.37278521  0.38915089    -0.08300
C1165       C  0.58228764  0.40069856  0.37024781     0.05200
C1166       C  0.61290236  0.40899339  0.34887364    -0.03300
Br1167     Br  0.62935563  0.44579300  0.32140011    -0.03000
H1168       H  0.65453839  0.39526153  0.32985842     0.09100
H1169       H  0.54814049  0.36701436  0.40604391     0.07100
Br1170     Br  0.57502231  0.31968374  0.41703691    -0.03500
C1171       C  0.88138687  0.07791923  0.24806442    -0.10100
C1172       C  0.90997714  0.08703860  0.22494364     0.06100
C1173       C  0.91921976  0.11608957  0.20766260    -0.03900
C1174       C  0.89998467  0.13543890  0.21356223    -0.08300
C1175       C  0.87136490  0.12654885  0.23667624     0.05200
C1176       C  0.86235741  0.09765308  0.25423655    -0.03300
Br1177     Br  0.82608167  0.08553169  0.28778880    -0.03000
H1178       H  0.87439576  0.05592271  0.26172022     0.09100
H1179       H  0.90675005  0.15689909  0.19945806     0.07100
Br1180     Br  0.95556038  0.12829438  0.17421034    -0.03500
C1181       C  0.91077895  0.29276258  0.19629851    -0.10100
C1182       C  0.90539997  0.31963234  0.21461714     0.06100
C1183       C  0.88353487  0.30859832  0.24174439    -0.03900
C1184       C  0.86766399  0.27156645  0.24953983    -0.08300
C1185       C  0.87272727  0.24490535  0.23088267     0.05200
C1186       C  0.89434694  0.25572044  0.20398473    -0.03300
Br1187     Br  0.89895274  0.21995040  0.17556283    -0.03000
H1188       H  0.92681749  0.30008276  0.17528657     0.09100
H1189       H  0.85029044  0.26312803  0.26998823     0.07100
Br1190     Br  0.87201224  0.34103204  0.26892156    -0.03500
C1191       C  0.68600374  0.10920580  0.24100172    -0.10100
C1192       C  0.67651209  0.08629167  0.21474943     0.06100
C1193       C  0.70469639  0.08081289  0.19780392    -0.03900
C1194       C  0.74096057  0.09828008  0.20716504    -0.08300
C1195       C  0.75062791  0.12210152  0.23275753     0.05200
C1196       C  0.72276325  0.12738709  0.24987586    -0.03300
Br1197     Br  0.73359012  0.15924600  0.28542968    -0.03000
H1198       H  0.66515310  0.11397316  0.25433987     0.09100
H1199       H  0.76242168  0.09462869  0.19361295     0.07100
Br1200     Br  0.69762168  0.05163794  0.16098215    -0.03500
C1201       C  0.86519013  0.09871757  0.99459051    -0.10100
C1202       C  0.86916119  0.11863865  0.47625847     0.06100
C1203       C  0.90269639  0.12923624  0.45746468    -0.03900
C1204       C  0.92115722  0.10954878  0.45638211    -0.08300
C1205       C  0.90603069  0.07821759  0.47272136     0.05200
C1206       C  0.87190560  0.06679081  0.49079848    -0.03300
Br1207     Br  0.85847582  0.03376930  0.01369905    -0.03000
H1208       H  0.83880789  0.08923060  0.00851219     0.09100
H1209       H  0.94690859  0.11799607  0.44182537     0.07100
Br1210     Br  0.92283674  0.16768945  0.43066797    -0.03500
C1211       C  0.88121149  0.30210583  0.48746680    -0.10100
C1212       C  0.90972900  0.31518767  0.46411281     0.06100
C1213       C  0.92136028  0.29058798  0.44947896    -0.03900
C1214       C  0.90241765  0.25310273  0.45661769    -0.08300
C1215       C  0.87219560  0.23924643  0.47850113     0.05200
C1216       C  0.86247703  0.26443991  0.49476363    -0.03300
Br1217     Br  0.82455884  0.25527200  0.01882212    -0.03000
H1218       H  0.87243812  0.32074241  0.49944351     0.09100
H1219       H  0.91046182  0.23423018  0.44413154     0.07100
Br1220     Br  0.96287238  0.30565422  0.41956519    -0.03500
C1221       C  0.69927504  0.07460985  0.43774160    -0.10100
C1222       C  0.67298842  0.07888136  0.45807020     0.06100
C1223       C  0.68560207  0.10079582  0.48459498    -0.03900
C1224       C  0.73223261  0.12566207  0.99099414    -0.08300
C1225       C  0.75008900  0.11539856  0.46873948     0.05200
C1226       C  0.73750655  0.09283100  0.44271510    -0.03300
Br1227     Br  0.77176235  0.08865888  0.41207224    -0.03000
H1228       H  0.69048152  0.05809090  0.41725276     0.09100
H1229       H  0.74261832  0.14494232  0.01017518     0.07100
Br1230     Br  0.66275271  0.11900553  0.01551268    -0.03500
C1231       C  0.84867081  0.13875767  0.47830598     0.02200
C1232       C  0.80962814  0.11810213  0.47472110    -0.14000
C1233       C  0.79057995  0.13698217  0.47417738    -0.00300
C1234       C  0.81060958  0.17678481  0.47750135    -0.12500
C1235       C  0.84956366  0.19781159  0.48150379     0.02200
C1236       C  0.86812138  0.17851920  0.48274139    -0.11900
H1237       H  0.79425007  0.08733413  0.47142925     0.07800
H1238       H  0.79632625  0.19133661  0.47530926     0.05300
H1239       H  0.89826989  0.19466850  0.48578281     0.05100
C1240       C  0.84830506  0.14767527  0.74128336     0.02200
C1241       C  0.80818451  0.12782007  0.74371267    -0.14000
C1242       C  0.78905140  0.14682872  0.74319903    -0.00300
C1243       C  0.81026031  0.18636122  0.74183549    -0.12500
C1244       C  0.85013950  0.20648985  0.73925160     0.02200
C1245       C  0.86899648  0.18711487  0.73882074    -0.11900
H1246       H  0.79180905  0.09717736  0.74401053     0.07800
H1247       H  0.79594144  0.20093642  0.73978017     0.05300
H1248       H  0.89981332  0.20250060  0.73460327     0.05100
C1249       C  0.65249283  0.35588232  0.86456676     0.02200
C1250       C  0.63283415  0.31658064  0.86723258    -0.14000
C1251       C  0.65296027  0.29871635  0.86776847    -0.00300
C1252       C  0.69292413  0.32025495  0.86530497    -0.12500
C1253       C  0.71285068  0.35960513  0.86270318     0.02200
C1254       C  0.69243913  0.37712121  0.86191154    -0.11900
H1255       H  0.60192669  0.30017115  0.86991546     0.07800
H1256       H  0.70838444  0.30682736  0.86731990     0.05300
H1257       H  0.70762116  0.40768342  0.86092527     0.05100
C1258       C  0.64797997  0.34990445  0.60539828     0.02200
C1259       C  0.62705218  0.30997988  0.60468555    -0.14000
C1260       C  0.64507188  0.29017553  0.60643023    -0.00300
C1261       C  0.68450221  0.31096691  0.60902591    -0.12500
C1262       C  0.70571070  0.35072573  0.60965261     0.02200
C1263       C  0.68750600  0.36999491  0.60740754    -0.11900
H1264       H  0.59636523  0.29443457  0.60452428     0.07800
H1265       H  0.69831142  0.29647400  0.61260286     0.05300
H1266       H  0.70378498  0.40083924  0.60901462     0.05100
N1267       N  0.58834359  0.06086375  0.94944361    -0.07100
N1268       N  0.61465881  0.07324214  0.96741656    -0.59200
N1269       N  0.56629386  0.08625372  0.89479445    -0.06700
N1270       N  0.58126685  0.11421033  0.87757854    -0.61300
N1271       N  0.55525456  0.09629752  0.92056017    -0.06300
N1272       N  0.56235034  0.13111202  0.92130032    -0.59200
N1273       N  0.59935391  0.05071823  0.92373240    -0.06000
N1274       N  0.63331478  0.05586983  0.92376188    -0.61700
C1275       C  0.64254122  0.06981251  0.95120895     0.95100
C1276       C  0.57827953  0.14198209  0.89427987     0.94900
N1277       N  0.99397045  0.47779906  0.85163373    -0.07300
N1278       N  0.97795570  0.46953818  0.82737806    -0.59800
N1279       N  0.56133005  0.47793674  0.88053366    -0.05400
N1280       N  0.59017996  0.47269484  0.87585326    -0.61000
N1281       N  0.52870224  0.44507901  0.88155561    -0.07300
N1282       N  0.53459181  0.41677819  0.87786843    -0.60000
N1283       N  0.52860551  0.01248410  0.85136013    -0.05000
N1284       N  0.53547994  0.02827625  0.82699550    -0.61100
Mn1285     Mn  0.56515322  0.03242805  0.88688424     1.18400
C1286       C  0.00270773  0.49972992  0.81199352     0.97200
C1287       C  0.57295878  0.43445959  0.87409598     0.97900
N1288       N  0.98100287  0.05812741  0.96348307    -0.07300
N1289       N  0.97561145  0.08674089  0.96772283    -0.63600
N1290       N  0.98004589  0.49127118  0.99299357    -0.06100
N1291       N  0.96423319  0.46807501  0.51797844    -0.64300
N1292       N  0.51431036  0.02342205  0.99296682    -0.06800
N1293       N  0.52338015  0.02473996  0.51707711    -0.63900
N1294       N  0.94816638  0.02552449  0.96376053    -0.05700
N1295       N  0.91966124  0.03123430  0.96833415    -0.64600
Mn1296     Mn  0.53516905  0.06054555  0.95718040     1.10700
C1297       C  0.93724946  0.06952446  0.97096238     0.98400
C1298       C  0.99478557  0.49428482  0.53228594     0.98500
N1299       N  0.95436785  0.40715427  0.92449597    -0.06800
N1300       N  0.94783986  0.37265567  0.92410108    -0.62200
N1301       N  0.90929886  0.45143952  0.92028800    -0.06100
N1302       N  0.87559913  0.44674452  0.91995676    -0.58900
N1303       N  0.92026212  0.44084261  0.89474249    -0.07400
N1304       N  0.89419256  0.42877211  0.87652270    -0.61800
N1305       N  0.94299004  0.41730739  0.95005425    -0.06400
N1306       N  0.92838011  0.38974000  0.96756528    -0.58900
Mn1307     Mn  0.97395120  0.44183256  0.88759425     1.20200
Mn1308     Mn  0.94359576  0.47071694  0.95729397     1.10100
Cl1309     Cl  0.00342839  0.50125545  0.92202941    -0.86900
C1310       C  0.93209799  0.36221548  0.95115503     0.95400
C1311       C  0.86655868  0.43299538  0.89248609     0.95200
N1312       N  0.58381917  0.06441205  0.70106601    -0.07100
N1313       N  0.61019692  0.07935055  0.71948321    -0.59200
N1314       N  0.56109012  0.08250269  0.64269494    -0.06700
N1315       N  0.57442219  0.10804899  0.62352221    -0.61300
N1316       N  0.54897497  0.09400638  0.66729998    -0.06300
N1317       N  0.55374620  0.12738745  0.66533072    -0.59200
N1318       N  0.59529980  0.05225748  0.67650714    -0.06000
N1319       N  0.62954972  0.05867643  0.67776147    -0.61700
C1320       C  0.63861990  0.07538796  0.70469863     0.95100
C1321       C  0.56918686  0.13575410  0.63783415     0.94900
N1322       N  0.98895086  0.47127063  0.60260211    -0.07300
N1323       N  0.97365159  0.46227490  0.57787652    -0.59800
N1324       N  0.55575072  0.47273693  0.63426360    -0.05400
N1325       N  0.58456495  0.46743863  0.62948931    -0.61000
N1326       N  0.52309858  0.43982574  0.63440215    -0.07300
N1327       N  0.52903822  0.41148198  0.62940765    -0.60000
N1328       N  0.52596716  0.00570631  0.60242104    -0.05000
N1329       N  0.53362382  0.01939740  0.57697696    -0.61100
Mn1330     Mn  0.56162511  0.02945248  0.63889031     1.18400
C1331       C  0.99907246  0.49179626  0.56199126     0.97200
C1332       C  0.56745939  0.42916123  0.62660475     0.97900
N1333       N  0.97385671  0.05802454  0.71038569    -0.07300
N1334       N  0.96731960  0.08596996  0.71451876    -0.63600
N1335       N  0.97390117  0.49136815  0.74366259    -0.06100
N1336       N  0.96705363  0.47674475  0.76855346    -0.64300
N1337       N  0.50863804  0.02807139  0.74348243    -0.06800
N1338       N  0.52449990  0.03674419  0.76792214    -0.63900
N1339       N  0.94147817  0.02488129  0.71071930    -0.05700
N1340       N  0.91230926  0.02964122  0.71483393    -0.64600
Mn1341     Mn  0.52923008  0.06208483  0.70606729     1.10700
C1342       C  0.92882226  0.06785101  0.71695129     0.98400
C1343       C  0.99760775  0.50296474  0.78285528     0.98500
N1344       N  0.94828589  0.40379779  0.67795159    -0.06800
N1345       N  0.94138962  0.36936134  0.67910184    -0.62200
N1346       N  0.90282996  0.44703499  0.67055001    -0.06100
N1347       N  0.86840328  0.44054918  0.66971483    -0.58900
N1348       N  0.91414603  0.43532923  0.64566607    -0.07400
N1349       N  0.88758019  0.42061246  0.62749306    -0.62000
N1350       N  0.93679294  0.41529244  0.70284714    -0.06400
N1351       N  0.92176237  0.38878166  0.72135731    -0.58900
Mn1352     Mn  0.96824214  0.43672547  0.63970963     1.20200
Mn1353     Mn  0.93729611  0.46864648  0.70780831     1.10100
Cl1354     Cl  0.99756094  0.49783016  0.67294283    -0.86900
C1355       C  0.92512155  0.36032880  0.70639858     0.95400
C1356       C  0.85923214  0.42431361  0.64259892     0.95200
C1357       C  0.61365306  0.18594284  0.60407367    -0.10100
C1358       C  0.58401669  0.17311445  0.62660889     0.06100
C1359       C  0.57128903  0.19759638  0.63934678    -0.03900
C1360       C  0.59057779  0.23500177  0.63155146    -0.08300
C1361       C  0.62206820  0.24874089  0.61059148     0.05200
C1362       C  0.63244783  0.22322510  0.59587340    -0.03300
Br1363     Br  0.67143993  0.23740971  0.56404268    -0.03000
H1364       H  0.62315112  0.16735610  0.59335911     0.09100
H1365       H  0.58162031  0.25382196  0.64274166     0.07100
Br1366     Br  0.52737706  0.18197844  0.66708851    -0.03500
C1367       C  0.79123163  0.40490645  0.65326563    -0.10100
C1368       C  0.82094565  0.40817011  0.63255438     0.06100
C1369       C  0.81252467  0.39421586  0.60347404    -0.03900
C1370       C  0.77494109  0.37614124  0.59621883    -0.08300
C1371       C  0.74547443  0.37212330  0.61724864     0.05200
C1372       C  0.75390408  0.38705480  0.64587336    -0.03300
Br1373     Br  0.71483896  0.38186363  0.67597549    -0.03000
H1374       H  0.79670163  0.41533247  0.67564952     0.09100
H1375       H  0.76859526  0.36492158  0.57406373     0.07100
Br1376     Br  0.85041361  0.39917306  0.57231036    -0.03500
C1377       C  0.63529020  0.39789952  0.63304746    -0.10100
C1378       C  0.62793576  0.37086138  0.60923758     0.06100
C1379       C  0.60044532  0.36329659  0.59095733    -0.03900
C1380       C  0.58060323  0.38221964  0.59707186    -0.08300
C1381       C  0.58823372  0.40922960  0.62087526     0.05200
C1382       C  0.61580848  0.41698733  0.63890556    -0.03300
Br1383     Br  0.62556241  0.45095838  0.67326511    -0.03000
H1384       H  0.65557986  0.40346708  0.64771101     0.09100
H1385       H  0.55966040  0.37635008  0.58290800     0.07100
Br1386     Br  0.59036035  0.32914378  0.55662498    -0.03500
C1387       C  0.60154435  0.20997935  0.90854116    -0.10100
C1388       C  0.59547536  0.18142263  0.88612090     0.06100
C1389       C  0.60748140  0.19191476  0.85719425    -0.03900
C1390       C  0.62588433  0.23023721  0.85153914    -0.08300
C1391       C  0.63237251  0.25845418  0.87415284     0.05200
C1392       C  0.61992828  0.24805021  0.90281150    -0.03300
Br1393     Br  0.62898174  0.28496912  0.93512035    -0.03000
H1394       H  0.59288513  0.20295401  0.93087020     0.09100
H1395       H  0.63522653  0.23808108  0.82942551     0.07100
Br1396     Br  0.59889397  0.15582957  0.82426476    -0.03500
C1397       C  0.76565000  0.40962415  0.89077453    -0.10100
C1398       C  0.75399607  0.38311079  0.86665431     0.06100
C1399       C  0.78103485  0.37728704  0.84877371    -0.03900
C1400       C  0.81821176  0.39528734  0.85675239    -0.08300
C1401       C  0.82911404  0.41951812  0.88233944     0.05200
C1402       C  0.80279870  0.42810592  0.89859180    -0.03300
Br1403     Br  0.81488313  0.46460607  0.93165410    -0.03000
H1404       H  0.74524486  0.41493829  0.90433522     0.09100
H1405       H  0.83821225  0.38924917  0.84335072     0.07100
Br1406     Br  0.76853302  0.34553392  0.81319931    -0.03500
C1407       C  0.63508108  0.39500122  0.84356834    -0.10100
C1408       C  0.63154993  0.37551277  0.86690503     0.06100
C1409       C  0.60919605  0.37628465  0.89258356    -0.03900
C1410       C  0.58985004  0.39519900  0.89426193    -0.08300
C1411       C  0.59334056  0.41451693  0.87099362     0.05200
C1412       C  0.61619858  0.41456601  0.84551215    -0.03300
Br1413     Br  0.62108212  0.43960569  0.81259777    -0.03000
H1414       H  0.65237832  0.39485393  0.82386602     0.09100
H1415       H  0.57280464  0.39564933  0.91403540     0.07100
Br1416     Br  0.60636171  0.35471850  0.92683021    -0.03500
C1417       C  0.92058126  0.11933048  0.74346538    -0.10100
C1418       C  0.90757938  0.08748447  0.72329351     0.06100
C1419       C  0.87439637  0.07487476  0.70991844    -0.03900
C1420       C  0.85541942  0.09454147  0.71639258    -0.08300
C1421       C  0.86832473  0.12650371  0.73657751     0.05200
C1422       C  0.90101057  0.13842928  0.75055117    -0.03300
Br1423     Br  0.91892243  0.17886929  0.78082162    -0.03000
H1424       H  0.94560712  0.12886170  0.75434047     0.09100
H1425       H  0.83083064  0.08522363  0.70499287     0.07100
Br1426     Br  0.85502489  0.03256872  0.68120412    -0.03500
C1427       C  0.90457364  0.29250470  0.69562475    -0.10100
C1428       C  0.90812518  0.32187680  0.71647744     0.06100
C1429       C  0.89368525  0.31295208  0.74556691    -0.03900
C1430       C  0.87548621  0.27528886  0.75279734    -0.08300
C1431       C  0.87164634  0.24627280  0.73168031     0.05200
C1432       C  0.88639578  0.25510364  0.70292785    -0.03300
Br1433     Br  0.88016616  0.21656295  0.67242953    -0.03000
H1434       H  0.91499693  0.29829254  0.67316728     0.09100
H1435       H  0.86401127  0.26851771  0.77498434     0.07100
Br1436     Br  0.89789831  0.35015222  0.77668916    -0.03500
C1437       C  0.68447779  0.11288633  0.74236031    -0.10100
C1438       C  0.67616440  0.09056768  0.71573016     0.06100
C1439       C  0.70471256  0.08487409  0.69986174    -0.03900
C1440       C  0.74014828  0.10158468  0.71049238    -0.08300
C1441       C  0.74882626  0.12499334  0.73634502     0.05200
C1442       C  0.72054421  0.13044375  0.75250399    -0.03300
Br1443     Br  0.72987044  0.16174107  0.78831346    -0.03000
H1444       H  0.66328825  0.11772750  0.75499972     0.09100
H1445       H  0.76192852  0.09783817  0.69760272     0.07100
Br1446     Br  0.69941539  0.05665192  0.66276323    -0.03500
C1447       C  0.85407200  0.08727019  0.49264610    -0.10100
C1448       C  0.88060167  0.13084513  0.97892116     0.06100
C1449       C  0.91517707  0.14264624  0.96107962    -0.03900
C1450       C  0.93361025  0.12292694  0.95984581    -0.08300
C1451       C  0.91748726  0.09027264  0.97475178     0.05200
C1452       C  0.88280945  0.07798134  0.99218742    -0.03300
Br1453     Br  0.84915838  0.02472125  0.51443387    -0.03000
H1454       H  0.82820607  0.07867260  0.50707726     0.09100
H1455       H  0.95994639  0.13213849  0.94588200     0.07100
Br1456     Br  0.93701378  0.18225207  0.93508008    -0.03500
C1457       C  0.88503593  0.30945656  0.98178610    -0.10100
C1458       C  0.91559910  0.32348093  0.96000994     0.06100
C1459       C  0.92796598  0.29924351  0.94589998    -0.03900
C1460       C  0.90885008  0.26160980  0.95287594    -0.08300
C1461       C  0.87749011  0.24718871  0.97387128     0.05200
C1462       C  0.86586963  0.27164616  0.98870199    -0.03300
Br1463     Br  0.82431746  0.24892299  0.52717063    -0.03000
H1464       H  0.87523087  0.32763193  0.99296389     0.09100
H1465       H  0.91799308  0.24320315  0.94121904     0.07100
Br1466     Br  0.97106941  0.31530629  0.91727835    -0.03500
C1467       C  0.70579237  0.07689279  0.94134099    -0.10100
C1468       C  0.68060723  0.08424764  0.96047279     0.06100
C1469       C  0.69389382  0.10785296  0.98625692    -0.03900
C1470       C  0.72390552  0.11879916  0.48953501    -0.08300
C1471       C  0.75763912  0.12002414  0.97089107     0.05200
C1472       C  0.74395764  0.09446758  0.94631415    -0.03300
Br1473     Br  0.77665759  0.08515252  0.91742484    -0.03000
H1474       H  0.69621693  0.05848361  0.92168564     0.09100
H1475       H  0.73352770  0.13608281  0.50965481     0.07100
Br1476     Br  0.65338507  0.10885599  0.51495040    -0.03500
C1477       C  0.85627419  0.64866618  0.97989770     0.02200
C1478       C  0.81676175  0.62678174  0.97810499    -0.14000
C1479       C  0.79684828  0.64423078  0.97565736    -0.00300
C1480       C  0.81648104  0.68391727  0.97575164    -0.12500
C1481       C  0.85567845  0.70626399  0.97871446     0.02200
C1482       C  0.87522107  0.68845218  0.98149311    -0.11900
H1483       H  0.80172075  0.59603648  0.97738071     0.07800
H1484       H  0.80150989  0.69722757  0.97214630     0.05300
H1485       H  0.90564113  0.70558518  0.98353910     0.05100
C1486       C  0.84935225  0.64586500  0.23560480     0.02200
C1487       C  0.80951463  0.62570182  0.23588056    -0.14000
C1488       C  0.79026216  0.64481180  0.23670732    -0.00300
C1489       C  0.81134060  0.68462970  0.23685385    -0.12500
C1490       C  0.85129414  0.70506009  0.23566581     0.02200
C1491       C  0.87001087  0.68566757  0.23581352    -0.11900
H1492       H  0.79356322  0.59493662  0.23372276     0.07800
H1493       H  0.79698844  0.69934806  0.23535027     0.05300
H1494       H  0.90093459  0.70147780  0.23431648     0.05100
C1495       C  0.64089842  0.84192182  0.36553555     0.02200
C1496       C  0.62059072  0.80201761  0.36308943    -0.14000
C1497       C  0.63914282  0.78277980  0.36421303    -0.00300
C1498       C  0.67845560  0.80344370  0.36656817    -0.12500
C1499       C  0.69939643  0.84329481  0.36813316     0.02200
C1500       C  0.68040963  0.86240924  0.36762276    -0.11900
H1501       H  0.58996479  0.78596105  0.36211483     0.07800
H1502       H  0.69225686  0.78852924  0.36913042     0.05300
H1503       H  0.69612030  0.89321825  0.36998248     0.05100
C1504       C  0.65046445  0.85020447  0.11381077     0.02200
C1505       C  0.63028897  0.81068424  0.11549836    -0.14000
C1506       C  0.64977425  0.79201360  0.11569372    -0.00300
C1507       C  0.68968199  0.81330473  0.11481993    -0.12500
C1508       C  0.70992665  0.85290388  0.11395879     0.02200
C1509       C  0.69033298  0.87101665  0.11260389    -0.11900
H1510       H  0.59941362  0.79467608  0.11795031     0.07800
H1511       H  0.70470868  0.79943927  0.11690272     0.05300
H1512       H  0.70605348  0.90172312  0.11231296     0.05100
N1513       N  0.57775176  0.55125457  0.44763801    -0.07100
N1514       N  0.60493722  0.56601574  0.46522360    -0.59200
N1515       N  0.55335609  0.57225309  0.39183928    -0.06700
N1516       N  0.56651133  0.59891713  0.37365306    -0.61300
N1517       N  0.54190386  0.58271729  0.41721683    -0.06300
N1518       N  0.54675367  0.61635810  0.41681592    -0.59200
N1519       N  0.58853584  0.53991068  0.42235163    -0.06000
N1520       N  0.62320582  0.54666985  0.42230713    -0.61700
C1521       C  0.63312112  0.56276579  0.44931040     0.95100
C1522       C  0.56183832  0.62619798  0.38952416     0.94900
N1523       N  0.98425798  0.96758093  0.35254041    -0.07300
N1524       N  0.96887548  0.96077456  0.32811197    -0.59800
N1525       N  0.55189359  0.96645950  0.38084501    -0.05400
N1526       N  0.58048615  0.96081231  0.37611352    -0.61000
N1527       N  0.51906865  0.93379899  0.38172925    -0.07300
N1528       N  0.52460683  0.90525267  0.37801141    -0.60000
N1529       N  0.51639488  0.49741037  0.35079750    -0.05000
N1530       N  0.52368569  0.51302716  0.32638987    -0.61100
Mn1531     Mn  0.55325907  0.51900887  0.38584006     1.18400
C1532       C  0.99470966  0.99153651  0.31337935     0.97200
C1533       C  0.56297306  0.92251594  0.37424721     0.97900
N1534       N  0.96913430  0.54691537  0.46120420    -0.07300
N1535       N  0.96337132  0.57529227  0.46482537    -0.63600
N1536       N  0.97457322  0.98284908  0.49390504    -0.06100
N1537       N  0.97354536  0.97499887  0.01750312    -0.64300
N1538       N  0.50417335  0.51500341  0.49187250    -0.06800
N1539       N  0.52806362  0.53166847  0.01747447    -0.63900
N1540       N  0.93644975  0.51420495  0.46237315    -0.05700
N1541       N  0.90771664  0.51957763  0.46698965    -0.64600
Mn1542     Mn  0.52372387  0.54982499  0.45499361     1.10700
C1543       C  0.92496556  0.55780326  0.46863699     0.98400
C1544       C  0.00369873  0.00020088  0.03255161     0.98500
N1545       N  0.94646935  0.89700594  0.42602987    -0.06800
N1546       N  0.94075356  0.86285875  0.42596847    -0.62200
N1547       N  0.90034035  0.94036757  0.42354480    -0.06100
N1548       N  0.86545304  0.93339107  0.42498330    -0.58900
N1549       N  0.91028629  0.92970733  0.39759729    -0.07400
N1550       N  0.88210978  0.91511078  0.38091992    -0.61800
N1551       N  0.93664811  0.90791988  0.45192444    -0.06400
N1552       N  0.92393605  0.88126305  0.46994563    -0.58900
Mn1553     Mn  0.96442223  0.93105911  0.38874113     1.20200
Mn1554     Mn  0.93660539  0.96098056  0.45921277     1.10100
Cl1555     Cl  0.99512338  0.99082851  0.42283366    -0.86900
C1556       C  0.92710335  0.85342494  0.45353400     0.95400
C1557       C  0.85437161  0.91795257  0.39822227     0.95200
N1558       N  0.57970191  0.55572724  0.20383163    -0.07100
N1559       N  0.60647619  0.57025771  0.22196080    -0.59200
N1560       N  0.56152879  0.58073526  0.14658122    -0.06700
N1561       N  0.57770683  0.60906852  0.12951076    -0.61300
N1562       N  0.54899597  0.59055136  0.17176116    -0.06300
N1563       N  0.55610770  0.62523830  0.17229200    -0.59200
N1564       N  0.59127024  0.54484263  0.17867927    -0.06000
N1565       N  0.62566695  0.55149267  0.17925322    -0.61700
C1566       C  0.63499133  0.56700437  0.20631402     0.95100
C1567       C  0.57376677  0.63664168  0.14586327     0.94900
N1568       N  0.99504471  0.97390630  0.10241084    -0.07300
N1569       N  0.98094212  0.96583114  0.07722883    -0.59800
N1570       N  0.55976111  0.97394099  0.13574809    -0.05400
N1571       N  0.58849865  0.96862898  0.13301266    -0.61000
N1572       N  0.52716590  0.94105084  0.13518520    -0.07300
N1573       N  0.53300490  0.91269510  0.13166687    -0.60000
N1574       N  0.52612551  0.50625194  0.10267240    -0.05000
N1575       N  0.53530341  0.52201139  0.07789891    -0.61100
Mn1576     Mn  0.55959825  0.52614961  0.14034826     1.18400
C1577       C  0.00687737  0.99614015  0.06221300     0.97200
C1578       C  0.57131756  0.93032751  0.13056188     0.97900
N1579       N  0.97195850  0.55367235  0.21100085    -0.07300
N1580       N  0.96686028  0.58248147  0.21357613    -0.63600
N1581       N  0.97234489  0.98808587  0.24384605    -0.06100
N1582       N  0.96276646  0.97196679  0.26838961    -0.64300
N1583       N  0.50163218  0.51791668  0.24391305    -0.06800
N1584       N  0.51592999  0.52399361  0.26862804    -0.63900
N1585       N  0.93897675  0.52122128  0.21041682    -0.05700
N1586       N  0.91072360  0.52717556  0.21294078    -0.64600
Mn1587     Mn  0.52590188  0.55522251  0.20832187     1.10700
C1588       C  0.92856015  0.56544888  0.21462682     0.98400
C1589       C  0.99205910  0.99682776  0.28417558     0.98500
N1590       N  0.95096439  0.90392605  0.17687865    -0.06800
N1591       N  0.94497242  0.86985283  0.17816741    -0.62200
N1592       N  0.90758553  0.94907885  0.16866302    -0.06100
N1593       N  0.87399565  0.94396078  0.16718878    -0.58900
N1594       N  0.91926476  0.93748571  0.14392888    -0.07400
N1595       N  0.89361398  0.92407709  0.12514736    -0.62000
N1596       N  0.93832059  0.91473809  0.20152673    -0.06400
N1597       N  0.92346854  0.88819412  0.21998806    -0.58900
Mn1598     Mn  0.97266346  0.93809105  0.13905177     1.20200
Mn1599     Mn  0.93894215  0.96814422  0.20693874     1.10100
Cl1600     Cl  0.00052280  0.99804609  0.17357166    -0.86900
C1601       C  0.92800429  0.86033632  0.20528311     0.95400
C1602       C  0.86556366  0.92853988  0.13988799     0.95200
C1603       C  0.61270879  0.68637622  0.11065022    -0.10100
C1604       C  0.59057011  0.67587996  0.13741606     0.06100
C1605       C  0.58650486  0.70383127  0.15596657    -0.03900
C1606       C  0.60539791  0.74102447  0.14795212    -0.08300
C1607       C  0.62831065  0.75152803  0.12174213     0.05200
C1608       C  0.63144435  0.72377992  0.10274860    -0.03300
Br1609     Br  0.65997351  0.73542577  0.06549228    -0.03000
H1610       H  0.61591252  0.66559110  0.09588661     0.09100
H1611       H  0.60280586  0.76224815  0.16264173     0.07100
Br1612     Br  0.55633520  0.69480505  0.19278120    -0.03500
C1613       C  0.80114886  0.91816001  0.14948127    -0.10100
C1614       C  0.82760253  0.91315983  0.13000914     0.06100
C1615       C  0.81557042  0.89085806  0.10354752    -0.03900
C1616       C  0.77718449  0.87207677  0.09829829    -0.08300
C1617       C  0.75069957  0.87571695  0.11862912     0.05200
C1618       C  0.76310425  0.89958306  0.14416599    -0.03300
Br1619     Br  0.72887631  0.90519411  0.17401410    -0.03000
H1620       H  0.80956173  0.93537090  0.16975202     0.09100
H1621       H  0.76778776  0.85407221  0.07845100     0.07100
Br1622     Br  0.84904686  0.88395522  0.07376591    -0.03500
C1623       C  0.63810461  0.89892927  0.14020983    -0.10100
C1624       C  0.63006901  0.87058803  0.11733416     0.06100
C1625       C  0.60245360  0.86197451  0.09890803    -0.03900
C1626       C  0.58336549  0.88157737  0.10367200    -0.08300
C1627       C  0.59173944  0.91011737  0.12639809     0.05200
C1628       C  0.61914075  0.91853977  0.14489519    -0.03300
Br1629     Br  0.62923373  0.95397332  0.17837660    -0.03000
H1630       H  0.65861895  0.90524441  0.15489922     0.09100
H1631       H  0.56239352  0.87497855  0.08930189     0.07100
Br1632     Br  0.59123886  0.82523736  0.06615776    -0.03500
C1633       C  0.58683652  0.69395988  0.40382071    -0.10100
C1634       C  0.57847859  0.66526821  0.38118379     0.06100
C1635       C  0.58823506  0.67542802  0.35220503    -0.03900
C1636       C  0.60726085  0.71391522  0.34666285    -0.08300
C1637       C  0.61666860  0.74226587  0.36962533     0.05200
C1638       C  0.60600626  0.73197463  0.39829589    -0.03300
Br1639     Br  0.61879380  0.76903890  0.43092606    -0.03000
H1640       H  0.57982290  0.68714540  0.42620175     0.09100
H1641       H  0.61520825  0.72176790  0.32453366     0.07100
Br1642     Br  0.57568258  0.63849031  0.31950317    -0.03500
C1643       C  0.75090453  0.88974239  0.39921599    -0.10100
C1644       C  0.73990319  0.86467638  0.37421791     0.06100
C1645       C  0.76718925  0.85896321  0.35655054    -0.03900
C1646       C  0.80437511  0.87740523  0.36444396    -0.08300
C1647       C  0.81529153  0.90165421  0.38995462     0.05200
C1648       C  0.78805626  0.90820697  0.40725413    -0.03300
Br1649     Br  0.79878182  0.94190845  0.44196994    -0.03000
H1650       H  0.73014713  0.89430865  0.41299387     0.09100
H1651       H  0.82466060  0.87211921  0.35068444     0.07100
Br1652     Br  0.75556093  0.82703533  0.32102016    -0.03500
C1653       C  0.63189284  0.88962218  0.34817809    -0.10100
C1654       C  0.62057036  0.86227493  0.36775932     0.06100
C1655       C  0.59042563  0.85531176  0.38944499    -0.03900
C1656       C  0.57162544  0.87473098  0.39069660    -0.08300
C1657       C  0.58301278  0.90205432  0.37121916     0.05200
C1658       C  0.61343124  0.90956102  0.34981429    -0.03300
Br1659     Br  0.62935028  0.94504509  0.32135940    -0.03000
H1660       H  0.65488578  0.89520722  0.33145215     0.09100
H1661       H  0.54881431  0.86934341  0.40751482     0.07100
Br1662     Br  0.57546083  0.82205622  0.41944270    -0.03500
C1663       C  0.87910792  0.57614355  0.24196799    -0.10100
C1664       C  0.90839064  0.58591385  0.21940581     0.06100
C1665       C  0.91797107  0.61510919  0.20215323    -0.03900
C1666       C  0.89862568  0.63439898  0.20794928    -0.08300
C1667       C  0.86968946  0.62519917  0.23090611     0.05200
C1668       C  0.86001211  0.59568788  0.24803328    -0.03300
Br1669     Br  0.82276775  0.58229221  0.28102709    -0.03000
H1670       H  0.87170478  0.55380161  0.25543451     0.09100
H1671       H  0.90576386  0.65626090  0.19408151     0.07100
Br1672     Br  0.95518896  0.62777523  0.16919935    -0.03500
C1673       C  0.91161680  0.79366539  0.19494754    -0.10100
C1674       C  0.91137593  0.82185007  0.21530755     0.06100
C1675       C  0.89301649  0.81144887  0.24350295    -0.03900
C1676       C  0.87418880  0.77339966  0.25004621    -0.08300
C1677       C  0.87357393  0.74541252  0.22918437     0.05200
C1678       C  0.89279390  0.75589675  0.20152963    -0.03300
Br1679     Br  0.89154138  0.71916290  0.17104232    -0.03000
H1680       H  0.92530970  0.80059042  0.17322580     0.09100
H1681       H  0.85958416  0.76550151  0.27143379     0.07100
Br1682     Br  0.89207130  0.84693990  0.27424879    -0.03500
C1683       C  0.68365855  0.60602115  0.24213330    -0.10100
C1684       C  0.67375827  0.58357237  0.21564263     0.06100
C1685       C  0.70222515  0.57950877  0.19766929    -0.03900
C1686       C  0.73941130  0.59919988  0.20550281    -0.08300
C1687       C  0.74953402  0.62274505  0.23117615     0.05200
C1688       C  0.72116951  0.62541859  0.24999623    -0.03300
Br1689     Br  0.73221631  0.65414773  0.28688875    -0.03000
H1690       H  0.66243162  0.60910120  0.25655488     0.09100
H1691       H  0.76096062  0.59669208  0.19101978     0.07100
Br1692     Br  0.69397470  0.54816370  0.16181829    -0.03500
C1693       C  0.86451589  0.59980465  0.99590522    -0.10100
C1694       C  0.86776288  0.61876586  0.47762458     0.06100
C1695       C  0.90114050  0.62962282  0.45848099    -0.03900
C1696       C  0.91963496  0.60985598  0.45662456    -0.08300
C1697       C  0.90472747  0.57813589  0.47240896     0.05200
C1698       C  0.87086105  0.56647238  0.49088371    -0.03300
Br1699     Br  0.86251384  0.53930105  0.01878172    -0.03000
H1700       H  0.83988480  0.59224214  0.01156515     0.09100
H1701       H  0.94519160  0.61849438  0.44179457     0.07100
Br1702     Br  0.92114489  0.66839690  0.43199601    -0.03500
C1703       C  0.88494751  0.80350812  0.48783774    -0.10100
C1704       C  0.91128766  0.81507760  0.46307280     0.06100
C1705       C  0.91947572  0.78863216  0.44685497    -0.03900
C1706       C  0.89932900  0.75108818  0.45422701    -0.08300
C1707       C  0.87151968  0.73908751  0.47792703     0.05200
C1708       C  0.86516452  0.76588428  0.49534789    -0.03300
Br1709     Br  0.82773084  0.75734002  0.02126638    -0.03000
H1710       H  0.87876137  0.82341950  0.50096860     0.09100
H1711       H  0.90472851  0.73087819  0.44084745     0.07100
Br1712     Br  0.95798716  0.80123505  0.41469051    -0.03500
C1713       C  0.69976632  0.57817343  0.43785326    -0.10100
C1714       C  0.67185914  0.57915212  0.45846498     0.06100
C1715       C  0.68260383  0.59766533  0.48632139    -0.03900
C1716       C  0.73118680  0.62973073  0.99005905    -0.08300
C1717       C  0.74837808  0.61569330  0.47129833     0.05200
C1718       C  0.73761454  0.59622128  0.44400208    -0.03300
Br1719     Br  0.77408609  0.59578618  0.41362057    -0.03000
H1720       H  0.69249511  0.56422607  0.41640132     0.09100
H1721       H  0.74199779  0.65060091  0.00836999     0.07100
Br1722     Br  0.66377112  0.62926499  0.01116337    -0.03500
C1723       C  0.84712467  0.63893589  0.48045797     0.02200
C1724       C  0.80770665  0.61834883  0.47807916    -0.14000
C1725       C  0.78865677  0.63731220  0.47760895    -0.00300
C1726       C  0.80912203  0.67718157  0.47984965    -0.12500
C1727       C  0.84847867  0.69806799  0.48248945     0.02200
C1728       C  0.86691373  0.67875360  0.48389792    -0.11900
H1729       H  0.79210572  0.58755846  0.47509340     0.07800
H1730       H  0.79494989  0.69179803  0.47753805     0.05300
H1731       H  0.89729864  0.69494974  0.48608880     0.05100
C1732       C  0.84812236  0.64796556  0.74046138     0.02200
C1733       C  0.80813099  0.62958850  0.74098767    -0.14000
C1734       C  0.79095206  0.64979934  0.73795227    -0.00300
C1735       C  0.81388097  0.68929189  0.73629411    -0.12500
C1736       C  0.85358203  0.70819389  0.73612467     0.02200
C1737       C  0.87046434  0.68740543  0.73771155    -0.11900
H1738       H  0.79026538  0.59912575  0.74224234     0.07800
H1739       H  0.80120339  0.70494007  0.73286924     0.05300
H1740       H  0.90126246  0.70190472  0.73503490     0.05100
C1741       C  0.65365885  0.85635055  0.86560358     0.02200
C1742       C  0.63336991  0.81688155  0.86746820    -0.14000
C1743       C  0.65280664  0.79848065  0.86854900    -0.00300
C1744       C  0.69270773  0.81973190  0.86765445    -0.12500
C1745       C  0.71323415  0.85924575  0.86561168     0.02200
C1746       C  0.69349924  0.87728472  0.86425343    -0.11900
H1747       H  0.60245633  0.80078194  0.86928950     0.07800
H1748       H  0.70754879  0.80583939  0.87015184     0.05300
H1749       H  0.70903189  0.90792777  0.86364446     0.05100
C1750       C  0.64959703  0.84922515  0.60806162     0.02200
C1751       C  0.62800080  0.80927672  0.60718482    -0.14000
C1752       C  0.64537817  0.78869834  0.60839301    -0.00300
C1753       C  0.68477160  0.80860176  0.61076825    -0.12500
C1754       C  0.70665459  0.84835611  0.61186095     0.02200
C1755       C  0.68914100  0.86844794  0.60988134    -0.11900
H1756       H  0.59730952  0.79426508  0.60736346     0.07800
H1757       H  0.69800144  0.79338695  0.61395672     0.05300
H1758       H  0.70605507  0.89929141  0.61144802     0.05100
N1759       N  0.58645694  0.56154868  0.94898083    -0.07100
N1760       N  0.61291653  0.57467244  0.96694157    -0.59200
N1761       N  0.56342569  0.58547654  0.89397850    -0.06700
N1762       N  0.57810167  0.61337358  0.87670652    -0.61300
N1763       N  0.55219833  0.59543941  0.91970523    -0.06300
N1764       N  0.55880158  0.63002981  0.92037722    -0.59200
N1765       N  0.59766903  0.55140761  0.92334843    -0.06000
N1766       N  0.63196506  0.55735915  0.92340991    -0.61700
C1767       C  0.64115480  0.57183280  0.95078988     0.95100
C1768       C  0.57464046  0.64092782  0.89338222     0.94900
N1769       N  0.99600147  0.97959505  0.85161617    -0.07300
N1770       N  0.97991177  0.97227069  0.82753765    -0.59800
N1771       N  0.56266502  0.97814913  0.88040175    -0.05400
N1772       N  0.59142794  0.97281396  0.87618654    -0.61000
N1773       N  0.52994540  0.94536378  0.88110628    -0.07300
N1774       N  0.53572311  0.91697371  0.87762379    -0.60000
N1775       N  0.52639097  0.51084137  0.85111231    -0.05000
N1776       N  0.53323778  0.52581931  0.82637886    -0.61100
Mn1777     Mn  0.56316511  0.53198077  0.88655712     1.18400
C1778       C  0.00476850  0.00284108  0.81252851     0.97200
C1779       C  0.57412582  0.93460203  0.87434442     0.97900
N1780       N  0.97852415  0.55753925  0.96281928    -0.07300
N1781       N  0.97297687  0.58604146  0.96669645    -0.63600
N1782       N  0.98151323  0.99071037  0.99292587    -0.06100
N1783       N  0.96813143  0.96847547  0.51883654    -0.64300
N1784       N  0.51273761  0.52410017  0.99287347    -0.06800
N1785       N  0.51997792  0.52385979  0.51635884    -0.63900
N1786       N  0.94578103  0.52483431  0.96336668    -0.05700
N1787       N  0.91714657  0.53037551  0.96788605    -0.64600
Mn1788     Mn  0.53292559  0.56048808  0.95664324     1.10700
C1789       C  0.93462770  0.56866793  0.97007920     0.98400
C1790       C  0.99886227  0.99486330  0.53287747     0.98500
N1791       N  0.95504927  0.90723701  0.92382380    -0.06800
N1792       N  0.94783118  0.87242828  0.92324212    -0.62200
N1793       N  0.91133416  0.95302863  0.92035446    -0.06100
N1794       N  0.87764000  0.94845844  0.92037442    -0.58900
N1795       N  0.92207386  0.94255154  0.89466439    -0.07400
N1796       N  0.89579589  0.93063864  0.87667737    -0.61800
N1797       N  0.94393218  0.91743614  0.94947829    -0.06400
N1798       N  0.92888223  0.88967946  0.96685186    -0.58900
Mn1799     Mn  0.97539360  0.94274533  0.88721425     1.20200
Mn1800     Mn  0.94536502  0.97119166  0.95722739     1.10100
Cl1801     Cl  0.00528795  0.00172041  0.92212850    -0.86900
C1802       C  0.93197556  0.86190638  0.95029102     0.95400
C1803       C  0.86834780  0.93490349  0.89295448     0.95200
N1804       N  0.58157752  0.56134646  0.70004016    -0.07100
N1805       N  0.60906499  0.57757680  0.71761718    -0.59200
N1806       N  0.55753146  0.58004879  0.64291731    -0.06700
N1807       N  0.57105789  0.60605396  0.62414957    -0.61300
N1808       N  0.54593093  0.59137797  0.66785693    -0.06300
N1809       N  0.55131730  0.62513512  0.66655738    -0.59200
N1810       N  0.59259975  0.54933633  0.67515753    -0.06000
N1811       N  0.62763846  0.55716621  0.67539057    -0.61700
C1812       C  0.63768194  0.57453041  0.70206303     0.95100
C1813       C  0.56655001  0.63389164  0.63910832     0.94900
N1814       N  0.99337605  0.97278881  0.60327302    -0.07300
N1815       N  0.97816258  0.96329484  0.57848696    -0.59800
N1816       N  0.56023374  0.97548555  0.63610109    -0.05400
N1817       N  0.58909696  0.97019244  0.63203569    -0.61000
N1818       N  0.52763306  0.94254924  0.63620963    -0.07300
N1819       N  0.53362233  0.91424669  0.63190911    -0.60000
N1820       N  0.52161377  0.50410039  0.60188033    -0.05000
N1821       N  0.52926292  0.51818255  0.57659225    -0.61100
Mn1822     Mn  0.55775735  0.52693357  0.63804993     1.18400
C1823       C  0.00353993  0.99260659  0.56243904     0.97200
C1824       C  0.57201650  0.93186322  0.62959422     0.97900
N1825       N  0.97135266  0.55553477  0.71165505    -0.07300
N1826       N  0.96471151  0.58345060  0.71678241    -0.63600
N1827       N  0.97626321  0.99494937  0.74411435    -0.06100
N1828       N  0.96935837  0.98034651  0.76901772    -0.64300
N1829       N  0.50646093  0.52431630  0.74292787    -0.06800
N1830       N  0.52249616  0.53287613  0.76722828    -0.63900
N1831       N  0.93897310  0.52243288  0.71200258    -0.05700
N1832       N  0.90979812  0.52713039  0.71720033    -0.64600
Mn1833     Mn  0.52671697  0.55902333  0.70612022     1.10700
C1834       C  0.92613091  0.56527477  0.71992580     0.98400
C1835       C  0.99963503  0.00671265  0.78351438     0.98500
N1836       N  0.95302551  0.90692618  0.67918725    -0.06800
N1837       N  0.94765656  0.87322015  0.68074321    -0.62200
N1838       N  0.90603309  0.94809703  0.67051046    -0.06100
N1839       N  0.87088706  0.93971724  0.66981986    -0.58900
N1840       N  0.91768205  0.93621808  0.64588241    -0.07400
N1841       N  0.89053016  0.91945567  0.62803602    -0.62000
N1842       N  0.94085066  0.91819879  0.70384758    -0.06400
N1843       N  0.92672337  0.89206069  0.72261146    -0.58900
Mn1844     Mn  0.97255765  0.93890109  0.64066442     1.20200
Mn1845     Mn  0.94028101  0.97117902  0.70786541     1.10100
Cl1846     Cl  0.00090862  0.00045807  0.67333896    -0.86900
C1847       C  0.93145038  0.86418627  0.70801564     0.95400
C1848       C  0.86144976  0.92198500  0.64310567     0.95200
C1849       C  0.61090722  0.68367728  0.60528959    -0.10100
C1850       C  0.58225973  0.67170733  0.62853977     0.06100
C1851       C  0.57163498  0.69738932  0.64254161    -0.03900
C1852       C  0.59140696  0.73469797  0.63456090    -0.08300
C1853       C  0.62172590  0.74738896  0.61263904     0.05200
C1854       C  0.63065237  0.72108611  0.59731561    -0.03300
Br1855     Br  0.66937295  0.73443171  0.56533458    -0.03000
H1856       H  0.61909120  0.66433926  0.59390638     0.09100
H1857       H  0.58399051  0.75436893  0.64647103     0.07100
Br1858     Br  0.53063980  0.68409110  0.67279420    -0.03500
C1859       C  0.79449138  0.90632146  0.65311353    -0.10100
C1860       C  0.82257776  0.90419821  0.63344239     0.06100
C1861       C  0.81195662  0.88386738  0.60604042    -0.03900
C1862       C  0.77427687  0.86646533  0.59919177    -0.08300
C1863       C  0.74663902  0.86877705  0.61900424     0.05200
C1864       C  0.75693356  0.88863034  0.64626060    -0.03300
Br1865     Br  0.72000312  0.88988500  0.67575814    -0.03000
H1866       H  0.80141110  0.92109775  0.67438172     0.09100
H1867       H  0.76636020  0.85070410  0.57831852     0.07100
Br1868     Br  0.84641832  0.87769164  0.57684882    -0.03500
C1869       C  0.63916154  0.89909473  0.63530423    -0.10100
C1870       C  0.63034446  0.87108277  0.61202107     0.06100
C1871       C  0.60230125  0.86362821  0.59432182    -0.03900
C1872       C  0.58346391  0.88356325  0.60048266    -0.08300
C1873       C  0.59255544  0.91155975  0.62371704     0.05200
C1874       C  0.62068077  0.91923618  0.64117172    -0.03300
Br1875     Br  0.63256264  0.95449596  0.67484268    -0.03000
H1876       H  0.65982652  0.90466096  0.64957713     0.09100
H1877       H  0.56204878  0.87761456  0.58678416     0.07100
Br1878     Br  0.58993339  0.82822865  0.56063063    -0.03500
C1879       C  0.60112028  0.70922738  0.90846063    -0.10100
C1880       C  0.59239261  0.68060311  0.88565857     0.06100
C1881       C  0.60247060  0.69119764  0.85678287    -0.03900
C1882       C  0.62184750  0.72975178  0.85145593    -0.08300
C1883       C  0.63130064  0.75802432  0.87444191     0.05200
C1884       C  0.62052759  0.74748981  0.90308102    -0.03300
Br1885     Br  0.63282035  0.78450224  0.93568557    -0.03000
H1886       H  0.59383482  0.70206593  0.93076239     0.09100
H1887       H  0.62970189  0.73771933  0.82935680     0.07100
Br1888     Br  0.58961489  0.65480322  0.82372842    -0.03500
C1889       C  0.76683784  0.91026539  0.89274905    -0.10100
C1890       C  0.75439431  0.88230368  0.86952540     0.06100
C1891       C  0.78096713  0.87563610  0.85177984    -0.03900
C1892       C  0.81858179  0.89459950  0.85888655    -0.08300
C1893       C  0.83042133  0.92057165  0.88347150     0.05200
C1894       C  0.80448895  0.92970537  0.89966347    -0.03300
Br1895     Br  0.81808362  0.96856396  0.93117614    -0.03000
H1896       H  0.74682128  0.91627081  0.90615702     0.09100
H1897       H  0.83823307  0.88796410  0.84562403     0.07100
Br1898     Br  0.76742464  0.84150772  0.81742079    -0.03500
C1899       C  0.63549123  0.89431392  0.84398144    -0.10100
C1900       C  0.63323499  0.87637371  0.86784147     0.06100
C1901       C  0.61256633  0.87889862  0.89397665    -0.03900
C1902       C  0.59276753  0.89734322  0.89546934    -0.08300
C1903       C  0.59457858  0.91477170  0.87154210     0.05200
C1904       C  0.61658396  0.91381255  0.84579349    -0.03300
Br1905     Br  0.62090418  0.93803908  0.81256078    -0.03000
H1906       H  0.65193886  0.89314686  0.82403117     0.09100
H1907       H  0.57679892  0.89900560  0.91556038     0.07100
Br1908     Br  0.61304814  0.86038032  0.92880516    -0.03500
C1909       C  0.91978549  0.61891510  0.74425733    -0.10100
C1910       C  0.90459296  0.58471245  0.72659882     0.06100
C1911       C  0.86904858  0.56978078  0.71592833    -0.03900
C1912       C  0.85114730  0.59050036  0.72108662    -0.08300
C1913       C  0.86665723  0.62534241  0.73816297     0.05200
C1914       C  0.90068098  0.63854183  0.75089519    -0.03300
Br1915     Br  0.92110280  0.68108534  0.77940451    -0.03000
H1916       H  0.94621229  0.62993285  0.75366183     0.09100
H1917       H  0.82530246  0.57950767  0.71085978     0.07100
Br1918     Br  0.84396217  0.52222148  0.69289203    -0.03500
C1919       C  0.91915620  0.79882282  0.69840000    -0.10100
C1920       C  0.91556672  0.82587014  0.71806130     0.06100
C1921       C  0.89452591  0.81431812  0.74529899    -0.03900
C1922       C  0.87532401  0.77599832  0.75111889    -0.08300
C1923       C  0.87745453  0.74893970  0.73068120     0.05200
C1924       C  0.90047158  0.76083911  0.70445024    -0.03300
Br1925     Br  0.90494108  0.72588826  0.67501379    -0.03000
H1926       H  0.93550526  0.80680392  0.67755614     0.09100
H1927       H  0.85817063  0.76711120  0.77159106     0.07100
Br1928     Br  0.89034336  0.84858126  0.77560508    -0.03500
C1929       C  0.68651851  0.61760579  0.73681289    -0.10100
C1930       C  0.67644538  0.59186159  0.71192287     0.06100
C1931       C  0.70428701  0.58465679  0.69667328    -0.03900
C1932       C  0.74051333  0.60271098  0.70644150    -0.08300
C1933       C  0.75068637  0.62892964  0.73081913     0.05200
C1934       C  0.72327767  0.63643398  0.74604111    -0.03300
Br1935     Br  0.73440983  0.67181829  0.77965581    -0.03000
H1936       H  0.66603218  0.62390303  0.74885588     0.09100
H1937       H  0.76147705  0.59719504  0.69422421     0.07100
Br1938     Br  0.69629079  0.55151277  0.66190956    -0.03500
C1939       C  0.85301767  0.58707446  0.49359207    -0.10100
C1940       C  0.87773675  0.62958007  0.97819027     0.06100
C1941       C  0.90978331  0.63888106  0.95787678    -0.03900
C1942       C  0.92838961  0.61928056  0.95632138    -0.08300
C1943       C  0.91474094  0.58922349  0.97365958     0.05200
C1944       C  0.88243314  0.57933786  0.99355820    -0.03300
Br1945     Br  0.84845905  0.52381973  0.51386649    -0.03000
H1946       H  0.82737717  0.57826193  0.50833536     0.09100
H1947       H  0.95285547  0.62654784  0.94052376     0.07100
Br1948     Br  0.92735713  0.67494812  0.92947602    -0.03500
C1949       C  0.88590847  0.81001897  0.98203842    -0.10100
C1950       C  0.91527765  0.82316502  0.95929067     0.06100
C1951       C  0.92660930  0.79826808  0.94478723    -0.03900
C1952       C  0.90744387  0.76081099  0.95218778    -0.08300
C1953       C  0.87716093  0.74725845  0.97407864     0.05200
C1954       C  0.86685320  0.77243792  0.98949657    -0.03300
Br1955     Br  0.83036732  0.75264325  0.52974234    -0.03000
H1956       H  0.87705787  0.82874200  0.99368455     0.09100
H1957       H  0.91569824  0.74186147  0.94020065     0.07100
Br1958     Br  0.96846592  0.81316025  0.91515034    -0.03500
C1959       C  0.70357984  0.57704297  0.94249703    -0.10100
C1960       C  0.67920441  0.58675579  0.96023290     0.06100
C1961       C  0.69317307  0.61280198  0.98480232    -0.03900
C1962       C  0.72067439  0.61592818  0.49229580    -0.08300
C1963       C  0.75587190  0.62143394  0.97141907     0.05200
C1964       C  0.74160633  0.59417621  0.94774499    -0.03300
Br1965     Br  0.77327298  0.58192412  0.92006995    -0.03000
H1966       H  0.69347155  0.55702639  0.92366229     0.09100
H1967       H  0.72882669  0.63068268  0.51343531     0.07100
Br1968     Br  0.64766007  0.59968140  0.51745229    -0.03500
loop_ 
_geom_bond_atom_site_label_1 
_geom_bond_atom_site_label_2 
_geom_bond_distance 
_geom_bond_site_symmetry_2 
_ccdc_geom_bond_type 
C1            C2   1.404       .  A
C1            C6   1.405       .  A
C1          C464   1.485       .  S
C2            C3   1.398       .  A
C2            H7   1.084       .  S
C3            C4   1.400       .  A
C3          C487   1.472       .  S
C4            C5   1.401       .  A
C4            H8   1.083       .  S
C5            C6   1.404       .  A
C5          C477   1.481       .  S
C6            H9   1.084       .  S
C10          C11   1.406       .  A
C10          C15   1.407       .  A
C10         C191   1.487       .  S
C11          C12   1.406       .  A
C11          H16   1.082       .  S
C12          C13   1.400       .  A
C12         C211   1.479       .  S
C13          C14   1.399       .  A
C13          H17   1.084       .  S
C14          C15   1.403       .  A
C14         C201   1.478       .  S
C15          H18   1.086       .  S
C19          C20   1.403       .  A
C19          C24   1.405       .  A
C19         C178   1.481       .  S
C20          C21   1.398       .  A
C20          H25   1.084       .  S
C21          C22   1.402       .  A
C21         C161   1.471       .  S
C22          C23   1.404       .  A
C22          H26   1.083       .  S
C23          C24   1.405       .  A
C23         C168   1.485       .  S
C24          H27   1.084       .  S
C28          C29   1.403       .  A
C28          C33   1.403       .  A
C28         C148   1.481       .  S
C29          C30   1.406       .  A
C29          H34   1.083       .  S
C30          C31   1.404       .  A
C30         C131   1.482       .  S
C31          C32   1.402       .  A
C31          H35   1.084       .  S
C32          C33   1.400       .  A
C32         C141   1.475       .  S
C33          H36   1.085       .  S
N37          N38   1.318       .  A
N37          N43   1.313       .  A
N37         Mn66   2.193       .  S
N38          C45   1.352       .  A
N39          N41   1.314       .  A
N39          N40   1.323       .  A
N39         Mn55   2.205       .  S
N40          C46   1.355       .  A
N41          N42   1.316       .  A
N41         Mn66   2.187       .  S
N42          C46   1.351       .  A
N43          N44   1.318       .  A
N43         Mn55   2.187       .  S
N44          C45   1.354       .  A
C45         C238   1.481       .  S
C46         C158   1.478       .  S
N47          N48   1.321       .  A
N47        N1529   1.315       .  A
N47         Mn77   2.200       .  S
N48          C56   1.352       .  A
N49          N50   1.320       .  A
N49          N51   1.316       .  A
N49        Mn547   2.197       .  S
N50          C57   1.352       .  A
N51          N52   1.319       .  A
N51       Mn1061   2.201   1_455  S
N52          C57   1.352       .  A
N53          N54   1.314       .  A
N53        N1523   1.315   1_445  A
N53         Mn55   2.165       .  S
N54        C1532   1.344   1_445  A
Mn55        N541   2.201   1_545  S
Mn55      Cl1555   2.546   1_445  S
C56         C113   1.452       .  S
C56        N1530   1.347       .  A
C57         C181   1.469       .  S
N58          N59   1.318       .  A
N58          N64   1.314       .  A
N58       Mn1050   2.191       .  S
N59          C67   1.352       .  A
N60        N1538   1.316       .  A
N60         N307   1.319       .  A
N60         Mn78   2.198       .  S
N61         N306   1.319   1_554  A
N61          C68   1.351       .  A
N62        N1536   1.315   1_445  A
N62         N309   1.318       .  A
N62         Mn66   2.184       .  S
N63         N308   1.320   1_554  A
N63        C1544   1.351       .  A
N64          N65   1.320       .  A
N64        Mn570   2.196   1_545  S
N65          C67   1.352       .  A
Mn66       N1042   2.191   1_455  S
Mn66      Cl1555   2.536   1_445  S
C67         C221   1.471       .  S
C68         C101   1.463       .  S
C68        N1539   1.352       .  A
N69          N70   1.317       .  A
N69          N75   1.315       .  A
N69         Mn77   2.199       .  S
N70          C80   1.352       .  A
N71          N72   1.319       .  A
N71          N73   1.315       .  A
N71         Mn78   2.200       .  S
N72          C81   1.353       .  A
N73          N74   1.321       .  A
N73         Mn77   2.201       .  S
N74          C81   1.355       .  A
N75          N76   1.322       .  A
N75         Mn78   2.196       .  S
N76          C80   1.355       .  A
Mn77       N1035   2.201       .  S
Mn77        Cl79   2.539       .  S
Mn78        N556   2.190       .  S
Mn78        Cl79   2.551       .  S
Cl79      Mn1531   2.553       .  S
Cl79      Mn1542   2.534       .  S
C80         C228   1.480       .  S
C81         C171   1.484       .  S
N82          N83   1.324       .  A
N82          N88   1.315       .  A
N82        Mn111   2.215       .  S
N83          C90   1.359       .  A
N84          N86   1.316       .  A
N84          N85   1.323       .  A
N84        Mn100   2.218       .  S
N85          C91   1.358       .  A
N86          N87   1.317       .  A
N86        Mn111   2.192       .  S
N87          C91   1.350       .  A
N88          N89   1.315       .  A
N88        Mn100   2.185       .  S
N89          C90   1.348       .  A
C90         C208   1.487       .  S
C91         C128   1.489       .  S
N92          N93   1.318       .  A
N92        N1574   1.316       .  A
N92        Mn122   2.198       .  S
N93         C101   1.350       .  A
N94          N95   1.321       .  A
N94          N96   1.317       .  A
N94        Mn592   2.213       .  S
N95         C102   1.354       .  A
N96          N97   1.320       .  A
N96       Mn1106   2.195   1_455  S
N97         C102   1.351       .  A
N98          N99   1.320       .  A
N98        N1568   1.316   1_445  A
N98        Mn100   2.199       .  S
N99        C1577   1.351   1_545  A
Mn100       N586   2.211   1_545  S
Mn100     Cl1600   2.543   1_545  S
C101       N1575   1.353       .  A
C102        C151   1.472       .  S
N103        N104   1.320       .  A
N103        N109   1.316       .  A
N103      Mn1095   2.206       .  S
N104        C112   1.353       .  A
N105        N106   1.320       .  A
N105       N1583   1.315       .  A
N105       Mn123   2.189       .  S
N106        C113   1.350       .  A
N107        N108   1.318       .  A
N107       N1581   1.315   1_445  A
N107       Mn111   2.201       .  S
N108       C1589   1.352   1_445  A
N109        N110   1.322       .  A
N109       Mn615   2.204   1_545  S
N110        C112   1.353       .  A
Mn111      N1087   2.206   1_455  S
Mn111     Cl1600   2.545   1_545  S
C112        C188   1.475       .  S
C113       N1584   1.349       .  A
N114        N115   1.321       .  A
N114        N120   1.314       .  A
N114       Mn122   2.211       .  S
N115        C125   1.357       .  A
N116        N117   1.317       .  A
N116        N118   1.314       .  A
N116       Mn123   2.193       .  S
N117        C126   1.353       .  A
N118        N119   1.321       .  A
N118       Mn122   2.201       .  S
N119        C126   1.354       .  A
N120        N121   1.319       .  A
N120       Mn123   2.195       .  S
N121        C125   1.352       .  A
Mn122      N1080   2.195       .  S
Mn122      Cl124   2.551       .  S
Mn123       N601   2.192       .  S
Mn123      Cl124   2.545       .  S
Cl124     Mn1576   2.543       .  S
Cl124     Mn1587   2.545       .  S
C125        C198   1.490       .  S
C126        C138   1.486       .  S
C127        C128   1.408       .  A
C127        C132   1.402       .  A
C127        H134   1.082       .  S
C128        C129   1.419       .  A
C129        C130   1.396       .  A
C129       Br136   1.922       .  S
C130        C131   1.401       .  A
C130        H135   1.083       .  S
C131        C132   1.408       .  A
C132       Br133   1.919       .  S
C137        C138   1.406       .  A
C137        C142   1.392       .  A
C137        H144   1.083       .  S
C138        C139   1.417       .  A
C139        C140   1.403       .  A
C139       Br146   1.921       .  S
C140        C141   1.402       .  A
C140        H145   1.083       .  S
C141        C142   1.406       .  A
C142       Br143   1.921       .  S
C147        C148   1.405       .  A
C147        C152   1.396       .  A
C147        H154   1.081       .  S
C148        C149   1.410       .  A
C149        C150   1.401       .  A
C149       Br156   1.919       .  S
C150        C151   1.404       .  A
C150        H155   1.082       .  S
C151        C152   1.406       .  A
C152       Br153   1.919       .  S
C157        C158   1.404       .  A
C157        C162   1.390       .  A
C157        H164   1.082       .  S
C158        C159   1.413       .  A
C159        C160   1.405       .  A
C159       Br166   1.919       .  S
C160        C161   1.403       .  A
C160        H165   1.082       .  S
C161        C162   1.404       .  A
C162       Br163   1.920       .  S
C167        C168   1.404       .  A
C167        C172   1.398       .  A
C167        H174   1.082       .  S
C168        C169   1.410       .  A
C169        C170   1.399       .  A
C169       Br176   1.920       .  S
C170        C171   1.407       .  A
C170        H175   1.083       .  S
C171        C172   1.414       .  A
C172       Br173   1.923       .  S
C177        C178   1.405       .  A
C177        C182   1.399       .  A
C177        H184   1.081       .  S
C178        C179   1.414       .  A
C179        C180   1.395       .  A
C179       Br186   1.921       .  S
C180        C181   1.399       .  A
C180        H185   1.079       .  S
C181        C182   1.408       .  A
C182       Br183   1.919       .  S
C187        C188   1.404       .  A
C187        C192   1.404       .  A
C187        H194   1.083       .  S
C188        C189   1.406       .  A
C189        C190   1.397       .  A
C189       Br196   1.918       .  S
C190        C191   1.405       .  A
C190        H195   1.082       .  S
C191        C192   1.413       .  A
C192       Br193   1.920       .  S
C197        C198   1.407       .  A
C197        C202   1.397       .  A
C197        H204   1.083       .  S
C198        C199   1.421       .  A
C199        C200   1.402       .  A
C199       Br206   1.923       .  S
C200        C201   1.401       .  A
C200        H205   1.084       .  S
C201        C202   1.407       .  A
C202       Br203   1.921       .  S
C207        C208   1.408       .  A
C207        C212   1.401       .  A
C207        H214   1.082       .  S
C208        C209   1.420       .  A
C209        C210   1.396       .  A
C209       Br216   1.923       .  S
C210        C211   1.399       .  A
C210        H215   1.083       .  S
C211        C212   1.408       .  A
C212       Br213   1.919       .  S
C217        C464   1.407       .  A
C217        C468   1.396       .  A
C217        H224   1.086   1_556  S
C218        C219   1.413       .  A
C218        C463   1.404       .  A
C218        C247   1.479       .  S
C219        C220   1.395       .  A
C219       Br226   1.922       .  S
C220        C221   1.401       .  A
C220        H225   1.086       .  S
C221        C222   1.409       .  A
C222        C463   1.397       .  A
C222       Br469   1.919       .  S
Br223       C468   1.920   1_554  S
C227        C228   1.408       .  A
C227        C232   1.402       .  A
C227        H234   1.083       .  S
C228        C229   1.412       .  A
C229        C230   1.392       .  A
C229       Br236   1.921       .  S
C230        C231   1.401       .  A
C230        H235   1.081       .  S
C231        C232   1.409       .  A
C231        C251   1.479       .  S
C232       Br479   1.920       .  S
Br233       C478   1.921   1_554  S
C237        C238   1.407       .  A
C237        C242   1.394       .  A
C237        H244   1.084       .  S
C238        C239   1.417       .  A
C239        C486   1.397       .  A
C239       Br492   1.922       .  S
C240        C485   1.397       .  A
C240        C487   1.400       .  A
C240        H245   1.085   1_556  S
C241        C242   1.407       .  A
C241        C486   1.400       .  A
C241        C249   1.472       .  S
C242       Br243   1.921       .  S
Br246       C485   1.923   1_554  S
C247        C248   1.401       .  A
C247        C252   1.403       .  A
C248        C249   1.399       .  A
C248        H253   1.085       .  S
C249        C250   1.401       .  A
C250        C251   1.402       .  A
C250        H254   1.083       .  S
C251        C252   1.403       .  A
C252        H255   1.085       .  S
C256        C257   1.409       .  A
C256        C261   1.406       .  A
C256        C437   1.492       .  S
C257        C258   1.407       .  A
C257        H262   1.082       .  S
C258        C259   1.401       .  A
C258        C457   1.482       .  S
C259        C260   1.399       .  A
C259        H263   1.084       .  S
C260        C261   1.402       .  A
C260        C447   1.474       .  S
C261        H264   1.085       .  S
C265        C266   1.404       .  A
C265        C270   1.401       .  A
C265        C424   1.477       .  S
C266        C267   1.402       .  A
C266        H271   1.084       .  S
C267        C268   1.402       .  A
C267        C407   1.477       .  S
C268        C269   1.405       .  A
C268        H272   1.084       .  S
C269        C270   1.403       .  A
C269        C414   1.478       .  S
C270        H273   1.085       .  S
C274        C275   1.407       .  A
C274        C279   1.406       .  A
C274        C394   1.487       .  S
C275        C276   1.408       .  A
C275        H280   1.083       .  S
C276        C277   1.406       .  A
C276        C377   1.489       .  S
C277        C278   1.401       .  A
C277        H281   1.083       .  S
C278        C279   1.400       .  A
C278        C387   1.477       .  S
C279        H282   1.085       .  S
N283        N284   1.318       .  A
N283        N289   1.314       .  A
N283       Mn312   2.191       .  S
N284        C291   1.352       .  A
N285        N287   1.315       .  A
N285        N286   1.322       .  A
N285       Mn301   2.207       .  S
N286        C292   1.355       .  A
N287        N288   1.319       .  A
N287       Mn312   2.203       .  S
N288        C292   1.354       .  A
N289        N290   1.318       .  A
N289       Mn301   2.196       .  S
N290        C291   1.354       .  A
C291        C484   1.481       .  S
C292        C404   1.489       .  S
N293       N1775   1.315       .  A
N293        N294   1.317       .  A
N293       Mn323   2.184       .  S
N294        C302   1.348       .  A
N295        N296   1.320       .  A
N295        N297   1.316       .  A
N295       Mn793   2.201       .  S
N296        C303   1.352       .  A
N297        N298   1.319       .  A
N297      Mn1307   2.196   1_455  S
N298        C303   1.350       .  A
N299       N1769   1.316   1_445  A
N299        N300   1.320       .  A
N299       Mn301   2.196       .  S
N300       C1778   1.352       .  A
Mn301       N787   2.197   1_545  S
Mn301     Cl1801   2.551       .  S
C302        C359   1.452       .  S
C302       N1776   1.351       .  A
C303        C427   1.464       .  S
N304        N305   1.318       .  A
N304        N310   1.315       .  A
N304      Mn1296   2.188       .  S
N305        C313   1.351       .  A
N306       N1784   1.316       .  A
N306       Mn324   2.197       .  S
N307        C314   1.351       .  A
N308       N1782   1.316   1_445  A
N308       Mn312   2.203       .  S
N309       C1790   1.349   1_445  A
N310        N311   1.319       .  A
N310       Mn816   2.193   1_545  S
N311        C313   1.352       .  A
Mn312      N1288   2.188   1_455  S
Mn312     Cl1801   2.539       .  S
C313        C467   1.469       .  S
C314        C347   1.458       .  S
C314       N1785   1.350       .  A
N315        N316   1.317       .  A
N315        N321   1.314       .  A
N315       Mn323   2.190       .  S
N316        C326   1.350       .  A
N317        N318   1.317       .  A
N317        N319   1.314       .  A
N317       Mn324   2.200       .  S
N318        C327   1.352       .  A
N319        N320   1.321       .  A
N319       Mn323   2.198       .  S
N320        C327   1.355       .  A
N321        N322   1.321       .  A
N321       Mn324   2.201       .  S
N322        C326   1.355       .  A
Mn323      N1281   2.196       .  S
Mn323      Cl325   2.537       .  S
Mn324       N802   2.197       .  S
Mn324      Cl325   2.550       .  S
Cl325     Mn1777   2.554       .  S
Cl325     Mn1788   2.537       .  S
C326        C474   1.479       .  S
C327        C417   1.484       .  S
N328        N329   1.323       .  A
N328        N334   1.314       .  A
N328       Mn357   2.210       .  S
N329        C336   1.357       .  A
N330        N332   1.316       .  A
N330        N331   1.323       .  A
N330       Mn346   2.217       .  S
N331        C337   1.357       .  A
N332        N333   1.318       .  A
N332       Mn357   2.199       .  S
N333        C337   1.352       .  A
N334        N335   1.318       .  A
N334       Mn346   2.199       .  S
N335        C336   1.352       .  A
C336        C454   1.490       .  S
C337        C374   1.487       .  S
N338       N1820   1.316       .  A
N338        N339   1.319       .  A
N338       Mn368   2.190       .  S
N339        C347   1.350       .  A
N340        N341   1.320       .  A
N340        N342   1.317       .  A
N340       Mn838   2.209       .  S
N341        C348   1.353       .  A
N342        N343   1.321       .  A
N342      Mn1352   2.204   1_455  S
N343        C348   1.352       .  A
N344       N1814   1.316   1_445  A
N344        N345   1.319       .  A
N344       Mn346   2.199       .  S
N345       C1823   1.351   1_545  A
Mn346       N832   2.216   1_545  S
Mn346     Cl1846   2.548       .  S
C347       N1821   1.351       .  A
C348        C397   1.473       .  S
N349        N350   1.322       .  A
N349        N355   1.317       .  A
N349      Mn1341   2.209       .  S
N350        C358   1.354       .  A
N351       N1829   1.316       .  A
N351        N352   1.319       .  A
N351       Mn369   2.200       .  S
N352        C359   1.351       .  A
N353       N1827   1.316   1_445  A
N353        N354   1.319       .  A
N353       Mn357   2.190       .  S
N354       C1835   1.350   1_455  A
N355        N356   1.321       .  A
N355       Mn861   2.209   1_545  S
N356        C358   1.353       .  A
Mn357      N1333   2.209   1_455  S
Mn357     Cl1846   2.551       .  S
C358        C434   1.480       .  S
C359       N1830   1.348       .  A
N360        N361   1.319       .  A
N360        N366   1.315       .  A
N360       Mn368   2.200       .  S
N361        C371   1.354       .  A
N362        N363   1.321       .  A
N362        N364   1.315       .  A
N362       Mn369   2.206       .  S
N363        C372   1.356       .  A
N364        N365   1.321       .  A
N364       Mn368   2.207       .  S
N365        C372   1.354       .  A
N366        N367   1.321       .  A
N366       Mn369   2.203       .  S
N367        C371   1.354       .  A
Mn368      N1326   2.204       .  S
Mn368      Cl370   2.550       .  S
Mn369       N847   2.198       .  S
Mn369      Cl370   2.547       .  S
Cl370     Mn1822   2.546       .  S
Cl370     Mn1833   2.551       .  S
C371        C444   1.487       .  S
C372        C384   1.490       .  S
C373        C374   1.406       .  A
C373        C378   1.402       .  A
C373        H380   1.082       .  S
C374        C375   1.414       .  A
C375        C376   1.399       .  A
C375       Br382   1.922       .  S
C376        C377   1.405       .  A
C376        H381   1.082       .  S
C377        C378   1.412       .  A
C378       Br379   1.921       .  S
C383        C384   1.407       .  A
C383        C388   1.397       .  A
C383        H390   1.084       .  S
C384        C385   1.419       .  A
C385        C386   1.404       .  A
C385       Br392   1.921       .  S
C386        C387   1.400       .  A
C386        H391   1.084       .  S
C387        C388   1.405       .  A
C388       Br389   1.920       .  S
C393        C394   1.406       .  A
C393        C398   1.396       .  A
C393        H400   1.082       .  S
C394        C395   1.413       .  A
C395        C396   1.403       .  A
C395       Br402   1.920       .  S
C396        C397   1.404       .  A
C396        H401   1.083       .  S
C397        C398   1.405       .  A
C398       Br399   1.918       .  S
C403        C404   1.407       .  A
C403        C408   1.396       .  A
C403        H410   1.082       .  S
C404        C405   1.417       .  A
C405        C406   1.404       .  A
C405       Br412   1.920       .  S
C406        C407   1.401       .  A
C406        H411   1.082       .  S
C407        C408   1.405       .  A
C408       Br409   1.917       .  S
C413        C414   1.401       .  A
C413        C418   1.395       .  A
C413        H420   1.083       .  S
C414        C415   1.407       .  A
C415        C416   1.401       .  A
C415       Br422   1.919       .  S
C416        C417   1.409       .  A
C416        H421   1.083       .  S
C417        C418   1.415       .  A
C418       Br419   1.923       .  S
C423        C424   1.405       .  A
C423        C428   1.401       .  A
C423        H430   1.081       .  S
C424        C425   1.410       .  A
C425        C426   1.395       .  A
C425       Br432   1.916       .  S
C426        C427   1.398       .  A
C426        H431   1.081       .  S
C427        C428   1.406       .  A
C428       Br429   1.918       .  S
C433        C434   1.404       .  A
C433        C438   1.402       .  A
C433        H440   1.083       .  S
C434        C435   1.409       .  A
C435        C436   1.400       .  A
C435       Br442   1.921       .  S
C436        C437   1.408       .  A
C436        H441   1.084       .  S
C437        C438   1.414       .  A
C438       Br439   1.921       .  S
C443        C444   1.407       .  A
C443        C448   1.395       .  A
C443        H450   1.083       .  S
C444        C445   1.418       .  A
C445        C446   1.403       .  A
C445       Br452   1.921       .  S
C446        C447   1.401       .  A
C446        H451   1.084       .  S
C447        C448   1.405       .  A
C448       Br449   1.921       .  S
C453        C454   1.410       .  A
C453        C458   1.403       .  A
C453        H460   1.082       .  S
C454        C455   1.418       .  A
C455        C456   1.395       .  A
C455       Br462   1.922       .  S
C456        C457   1.400       .  A
C456        H461   1.083       .  S
C457        C458   1.408       .  A
C458       Br459   1.919       .  S
C463        H470   1.086       .  S
C464        C465   1.416       .  A
C465        C466   1.394       .  A
C465       Br472   1.922       .  S
C466        C467   1.399       .  A
C466        H471   1.086       .  S
C467        C468   1.408       .  A
C473        C474   1.406       .  A
C473        C478   1.400       .  A
C473        H480   1.083       .  S
C474        C475   1.413       .  A
C475        C476   1.395       .  A
C475       Br482   1.923       .  S
C476        C477   1.403       .  A
C476        H481   1.080       .  S
C477        C478   1.410       .  A
C483        C484   1.407       .  A
C483        C488   1.395       .  A
C483        H490   1.084       .  S
C484        C485   1.417       .  A
C486        H491   1.085       .  S
C487        C488   1.406       .  A
C488       Br489   1.921       .  S
C493        C494   1.402       .  A
C493        C498   1.403       .  A
C493        C956   1.480       .  S
C494        C495   1.399       .  A
C494        H499   1.084       .  S
C495        C496   1.402       .  A
C495        C979   1.475       .  S
C496        C497   1.401       .  A
C496        H500   1.083       .  S
C497        C498   1.403       .  A
C497        C969   1.480       .  S
C498        H501   1.085       .  S
C502        C503   1.403       .  A
C502        C507   1.404       .  A
C502        C683   1.485       .  S
C503        C504   1.404       .  A
C503        H508   1.082       .  S
C504        C505   1.405       .  A
C504        C703   1.481       .  S
C505        C506   1.404       .  A
C505        H509   1.084       .  S
C506        C507   1.403       .  A
C506        C693   1.478       .  S
C507        H510   1.086       .  S
C511        C512   1.404       .  A
C511        C516   1.405       .  A
C511        C670   1.481       .  S
C512        C513   1.400       .  A
C512        H517   1.084       .  S
C513        C514   1.400       .  A
C513        C653   1.470       .  S
C514        C515   1.402       .  A
C514        H518   1.084       .  S
C515        C516   1.405       .  A
C515        C660   1.482       .  S
C516        H519   1.084       .  S
C520        C521   1.404       .  A
C520        C525   1.401       .  A
C520        C640   1.479       .  S
C521        C522   1.405       .  A
C521        H526   1.083       .  S
C522        C523   1.403       .  A
C522        C623   1.478       .  S
C523        C524   1.402       .  A
C523        H527   1.084       .  S
C524        C525   1.399       .  A
C524        C633   1.472       .  S
C525        H528   1.085       .  S
N529        N530   1.320       .  A
N529        N535   1.314       .  A
N529       Mn558   2.202       .  S
N530        C537   1.353       .  A
N531        N533   1.314       .  A
N531        N532   1.324       .  A
N531       Mn547   2.206       .  S
N532        C538   1.356       .  A
N533        N534   1.315       .  A
N533       Mn558   2.189       .  S
N534        C538   1.351       .  A
N535        N536   1.320       .  A
N535       Mn547   2.198       .  S
N536        C537   1.355       .  A
C537        C730   1.488       .  S
C538        C650   1.482       .  S
N539       N1037   1.315   1_565  A
N539        N540   1.321       .  A
N539       Mn569   2.208       .  S
N540        C548   1.354       .  A
N541        N542   1.321       .  A
N541        N543   1.316       .  A
N542        C549   1.353       .  A
N543        N544   1.319       .  A
N543      Mn1553   2.201   1_455  S
N544        C549   1.352       .  A
N545       N1031   1.315   1_455  A
N545        N546   1.315       .  A
N545       Mn547   2.179       .  S
N546       C1040   1.347   1_455  A
Mn547     Cl1063   2.553   1_455  S
C548        C605   1.450       .  S
C548       N1038   1.344   1_565  A
C549        C673   1.471       .  S
N550        N551   1.319       .  A
N550        N556   1.314       .  A
N550      Mn1542   2.196       .  S
N551        C559   1.352       .  A
N552       N1046   1.315   1_565  A
N552        N799   1.318       .  A
N552       Mn570   2.193       .  S
N553        N798   1.320   1_554  A
N553        C560   1.351   1_565  A
N554       N1044   1.316   1_455  A
N554        N801   1.319       .  A
N554       Mn558   2.193       .  S
N555        N800   1.322   1_554  A
N555       C1052   1.352       .  A
N556        N557   1.319       .  A
N557        C559   1.351       .  A
Mn558      N1534   2.196   1_455  S
Mn558     Cl1063   2.534   1_455  S
C559        C713   1.471       .  S
C560        C593   1.461   1_545  S
C560       N1047   1.351       .  A
N561        N562   1.318       .  A
N561        N567   1.315       .  A
N561       Mn569   2.198       .  S
N562        C572   1.352       .  A
N563        N564   1.318       .  A
N563        N565   1.315       .  A
N563       Mn570   2.191       .  S
N564        C573   1.350       .  A
N565        N566   1.321       .  A
N565       Mn569   2.209       .  S
N566        C573   1.357       .  A
N567        N568   1.321       .  A
N567       Mn570   2.200       .  S
N568        C572   1.355       .  A
Mn569      N1527   2.201       .  S
Mn569      Cl571   2.540       .  S
Mn570      Cl571   2.545       .  S
Cl571     Mn1039   2.546   1_565  S
Cl571     Mn1050   2.536   1_565  S
C572        C720   1.482       .  S
C573        C663   1.486       .  S
N574        N575   1.326       .  A
N574        N580   1.315       .  A
N574       Mn603   2.217       .  S
N575        C582   1.360       .  A
N576        N578   1.314       .  A
N576        N577   1.325       .  A
N576       Mn592   2.222       .  S
N577        C583   1.360       .  A
N578        N579   1.315       .  A
N578       Mn603   2.181       .  S
N579        C583   1.347       .  A
N580        N581   1.315       .  A
N580       Mn592   2.193       .  S
N581        C582   1.349       .  A
C582        C700   1.491       .  S
C583        C620   1.488       .  S
N584       N1082   1.316   1_565  A
N584        N585   1.320       .  A
N584       Mn614   2.197       .  S
N585        C593   1.351       .  A
N586        N587   1.321       .  A
N586        N588   1.316       .  A
N587        C594   1.354       .  A
N588        N589   1.320       .  A
N588      Mn1598   2.196   1_455  S
N589        C594   1.351       .  A
N590       N1076   1.316   1_455  A
N590        N591   1.322       .  A
N590       Mn592   2.204       .  S
N591       C1085   1.353       .  A
Mn592     Cl1108   2.543   1_455  S
C593       N1083   1.351   1_565  A
C594        C643   1.472       .  S
N595        N596   1.321       .  A
N595        N601   1.315       .  A
N595      Mn1587   2.208       .  S
N596        C604   1.353       .  A
N597       N1091   1.315   1_565  A
N597        N598   1.317       .  A
N597       Mn615   2.172       .  S
N598        C605   1.346       .  A
N599       N1089   1.315   1_455  A
N599        N600   1.316       .  A
N599       Mn603   2.189       .  S
N600       C1097   1.349   1_455  A
N601        N602   1.320       .  A
N602        C604   1.351       .  A
Mn603      N1579   2.208   1_455  S
Mn603     Cl1108   2.545   1_455  S
C604        C680   1.471       .  S
C605       N1092   1.352   1_565  A
N606        N607   1.320       .  A
N606        N612   1.314       .  A
N606       Mn614   2.206       .  S
N607        C617   1.356       .  A
N608        N609   1.315       .  A
N608        N610   1.314       .  A
N608       Mn615   2.183       .  S
N609        C618   1.352       .  A
N610        N611   1.320       .  A
N610       Mn614   2.197       .  S
N611        C618   1.354       .  A
N612        N613   1.321       .  A
N612       Mn615   2.202       .  S
N613        C617   1.353       .  A
Mn614      N1572   2.197       .  S
Mn614      Cl616   2.550       .  S
Mn615      Cl616   2.546       .  S
Cl616     Mn1084   2.543   1_565  S
Cl616     Mn1095   2.545   1_565  S
C617        C690   1.490       .  S
C618        C630   1.481       .  S
C619        C620   1.408       .  A
C619        C624   1.402       .  A
C619        H626   1.082       .  S
C620        C621   1.421       .  A
C621        C622   1.396       .  A
C621       Br628   1.924       .  S
C622        C623   1.398       .  A
C622        H627   1.083       .  S
C623        C624   1.407       .  A
C624       Br625   1.918       .  S
C629        C630   1.406       .  A
C629        C634   1.390       .  A
C629        H636   1.083       .  S
C630        C631   1.417       .  A
C631        C632   1.401       .  A
C631       Br638   1.921       .  S
C632        C633   1.401       .  A
C632        H637   1.083       .  S
C633        C634   1.407       .  A
C634       Br635   1.922       .  S
C639        C640   1.405       .  A
C639        C644   1.397       .  A
C639        H646   1.081       .  S
C640        C641   1.409       .  A
C641        C642   1.401       .  A
C641       Br648   1.920       .  S
C642        C643   1.404       .  A
C642        H647   1.082       .  S
C643        C644   1.407       .  A
C644       Br645   1.918       .  S
C649        C650   1.405       .  A
C649        C654   1.388       .  A
C649        H656   1.082       .  S
C650        C651   1.415       .  A
C651        C652   1.406       .  A
C651       Br658   1.920       .  S
C652        C653   1.404       .  A
C652        H657   1.082       .  S
C653        C654   1.403       .  A
C654       Br655   1.920       .  S
C659        C660   1.403       .  A
C659        C664   1.399       .  A
C659        H666   1.083       .  S
C660        C661   1.408       .  A
C661        C662   1.398       .  A
C661       Br668   1.919       .  S
C662        C663   1.406       .  A
C662        H667   1.083       .  S
C663        C664   1.418       .  A
C664       Br665   1.924       .  S
C669        C670   1.405       .  A
C669        C674   1.401       .  A
C669        H676   1.081       .  S
C670        C671   1.412       .  A
C671        C672   1.396       .  A
C671       Br678   1.918       .  S
C672        C673   1.400       .  A
C672        H677   1.080       .  S
C673        C674   1.408       .  A
C674       Br675   1.918       .  S
C679        C680   1.402       .  A
C679        C684   1.399       .  A
C679        H686   1.084       .  S
C680        C681   1.406       .  A
C681        C682   1.398       .  A
C681       Br688   1.919       .  S
C682        C683   1.407       .  A
C682        H687   1.083       .  S
C683        C684   1.412       .  A
C684       Br685   1.920       .  S
C689        C690   1.406       .  A
C689        C694   1.395       .  A
C689        H696   1.083       .  S
C690        C691   1.420       .  A
C691        C692   1.404       .  A
C691       Br698   1.922       .  S
C692        C693   1.401       .  A
C692        H697   1.084       .  S
C693        C694   1.407       .  A
C694       Br695   1.921       .  S
C699        C700   1.410       .  A
C699        C704   1.406       .  A
C699        H706   1.082       .  S
C700        C701   1.420       .  A
C701        C702   1.393       .  A
C701       Br708   1.923       .  S
C702        C703   1.398       .  A
C702        H707   1.083       .  S
C703        C704   1.408       .  A
C704       Br705   1.918       .  S
C709        C956   1.405       .  A
C709        C960   1.397       .  A
C709        H716   1.086   1_556  S
C710        C955   1.405       .  A
C710        C711   1.415       .  A
C710        C739   1.483       .  S
C711        C712   1.394       .  A
C711       Br718   1.921       .  S
C712        C713   1.399       .  A
C712        H717   1.086       .  S
C713        C714   1.410       .  A
C714        C955   1.398       .  A
C714       Br961   1.920       .  S
Br715       C960   1.919   1_554  S
C719        C720   1.408       .  A
C719        C724   1.401       .  A
C719        H726   1.082       .  S
C720        C721   1.414       .  A
C721        C722   1.395       .  A
C721       Br728   1.923       .  S
C722        C723   1.403       .  A
C722        H727   1.079       .  S
C723        C724   1.406       .  A
C723        C743   1.479       .  S
C724       Br971   1.918       .  S
Br725       C970   1.921   1_554  S
C729        C730   1.408       .  A
C729        C734   1.397       .  A
C729        H736   1.083       .  S
C730        C731   1.419       .  A
C731        C978   1.401       .  A
C731       Br984   1.922       .  S
C732        C977   1.396       .  A
C732        C979   1.401       .  A
C732        H737   1.085   1_556  S
C733        C978   1.400       .  A
C733        C734   1.406       .  A
C733        C741   1.476       .  S
C734       Br735   1.921       .  S
Br738       C977   1.923   1_554  S
C739        C740   1.404       .  A
C739        C744   1.402       .  A
C740        C741   1.402       .  A
C740        H745   1.085       .  S
C741        C742   1.403       .  A
C742        C743   1.404       .  A
C742        H746   1.083       .  S
C743        C744   1.401       .  A
C744        H747   1.085       .  S
C748        C749   1.413       .  A
C748        C753   1.407       .  A
C748        C929   1.501       .  S
C749        C750   1.408       .  A
C749        H754   1.082       .  S
C750        C751   1.403       .  A
C750        C949   1.489       .  S
C751        C752   1.402       .  A
C751        H755   1.083       .  S
C752        C753   1.402       .  A
C752        C939   1.479       .  S
C753        H756   1.083       .  S
C757        C758   1.403       .  A
C757        C762   1.399       .  A
C757        C916   1.472       .  S
C758        C759   1.401       .  A
C758        H763   1.085       .  S
C759        C760   1.403       .  A
C759        C899   1.475       .  S
C760        C761   1.406       .  A
C760        H764   1.083       .  S
C761        C762   1.402       .  A
C761        C906   1.478       .  S
C762        H765   1.085       .  S
C766        C767   1.407       .  A
C766        C771   1.407       .  A
C766        C886   1.491       .  S
C767        C768   1.408       .  A
C767        H772   1.082       .  S
C768        C769   1.404       .  A
C768        C869   1.486       .  S
C769        C770   1.400       .  A
C769        H773   1.083       .  S
C770        C771   1.403       .  A
C770        C879   1.480       .  S
C771        H774   1.085       .  S
N775        N776   1.318       .  A
N775        N781   1.314       .  A
N775       Mn804   2.190       .  S
N776        C783   1.351       .  A
N777        N779   1.315       .  A
N777        N778   1.324       .  A
N777       Mn793   2.212       .  S
N778        C784   1.356       .  A
N779        N780   1.318       .  A
N779       Mn804   2.200       .  S
N780        C784   1.353       .  A
N781        N782   1.318       .  A
N781       Mn793   2.196       .  S
N782        C783   1.354       .  A
C783        C976   1.479       .  S
C784        C896   1.487       .  S
N785       N1283   1.316   1_565  A
N785        N786   1.317       .  A
N785       Mn815   2.190       .  S
N786        C794   1.349   1_565  A
N787        N788   1.320       .  A
N787        N789   1.316       .  A
N788        C795   1.350       .  A
N789        N790   1.320       .  A
N789      Mn1799   2.200   1_455  S
N790        C795   1.352       .  A
N791       N1277   1.315   1_455  A
N791        N792   1.319       .  A
N791       Mn793   2.193       .  S
N792       C1286   1.351       .  A
Mn793     Cl1309   2.554       .  S
C794        C851   1.456       .  S
C794       N1284   1.352       .  A
C795        C919   1.464       .  S
N796        N797   1.318       .  A
N796        N802   1.315       .  A
N796      Mn1788   2.187       .  S
N797        C805   1.350       .  A
N798       N1292   1.316   1_565  A
N798       Mn816   2.194       .  S
N799        C806   1.351       .  A
N800       N1290   1.316   1_455  A
N800       Mn804   2.204       .  S
N801       C1298   1.350   1_455  A
N802        N803   1.320       .  A
N803        C805   1.352       .  A
Mn804      N1780   2.187   1_455  S
Mn804     Cl1309   2.537       .  S
C805        C959   1.467       .  S
C806        C839   1.454       .  S
C806       N1293   1.349   1_565  A
N807        N808   1.318       .  A
N807        N813   1.314       .  A
N807       Mn815   2.196       .  S
N808        C818   1.352       .  A
N809        N810   1.317       .  A
N809        N811   1.314       .  A
N809       Mn816   2.193       .  S
N810        C819   1.351       .  A
N811        N812   1.321       .  A
N811       Mn815   2.200       .  S
N812        C819   1.355       .  A
N813        N814   1.321       .  A
N813       Mn816   2.198       .  S
N814        C818   1.354       .  A
Mn815      N1773   2.200       .  S
Mn815      Cl817   2.539   1_565  S
Mn816      Cl817   2.548   1_565  S
Cl817     Mn1285   2.551       .  S
Cl817     Mn1296   2.539       .  S
C818        C966   1.480       .  S
C819        C909   1.481       .  S
N820        N821   1.324       .  A
N820        N826   1.315       .  A
N820       Mn849   2.219       .  S
N821        C828   1.358       .  A
N822        N824   1.315       .  A
N822        N823   1.322       .  A
N822       Mn838   2.209       .  S
N823        C829   1.356       .  A
N824        N825   1.317       .  A
N824       Mn849   2.191       .  S
N825        C829   1.351       .  A
N826        N827   1.320       .  A
N826       Mn838   2.207       .  S
N827        C828   1.353       .  A
C828        C946   1.496       .  S
C829        C866   1.483       .  S
N830       N1328   1.316   1_565  A
N830        N831   1.317       .  A
N830       Mn860   2.186       .  S
N831        C839   1.349       .  A
N832        N833   1.323       .  A
N832        N834   1.317       .  A
N833        C840   1.355       .  A
N834        N835   1.321       .  A
N834      Mn1844   2.204   1_455  S
N835        C840   1.352       .  A
N836       N1322   1.316   1_455  A
N836        N837   1.320       .  A
N836       Mn838   2.200       .  S
N837       C1331   1.351   1_455  A
Mn838     Cl1354   2.546   1_455  S
C839       N1329   1.351   1_565  A
C840        C889   1.478       .  S
N841        N842   1.323       .  A
N841        N847   1.316       .  A
N841      Mn1833   2.217       .  S
N842        C850   1.356       .  A
N843       N1337   1.316   1_565  A
N843        N844   1.318       .  A
N843       Mn861   2.198       .  S
N844        C851   1.351   1_565  A
N845       N1335   1.316   1_455  A
N845        N846   1.318       .  A
N845       Mn849   2.184       .  S
N846       C1343   1.348   1_455  A
N847        N848   1.319       .  A
N848        C850   1.351       .  A
Mn849      N1825   2.217   1_455  S
Mn849     Cl1354   2.551   1_455  S
C850        C926   1.484       .  S
C851       N1338   1.350       .  A
N852        N853   1.317       .  A
N852        N858   1.314       .  A
N852       Mn860   2.191       .  S
N853        C863   1.353       .  A
N854        N855   1.320       .  A
N854        N856   1.315       .  A
N854       Mn861   2.201       .  S
N855        C864   1.355       .  A
N856        N857   1.322       .  A
N856       Mn860   2.214       .  S
N857        C864   1.355       .  A
N858        N859   1.323       .  A
N858       Mn861   2.214       .  S
N859        C863   1.356       .  A
Mn860      N1818   2.204       .  S
Mn860      Cl862   2.548   1_565  S
Mn861      Cl862   2.548   1_565  S
Cl862     Mn1330   2.548       .  S
Cl862     Mn1341   2.551       .  S
C863        C936   1.490       .  S
C864        C876   1.494       .  S
C865        C866   1.406       .  A
C865        C870   1.400       .  A
C865        H872   1.082       .  S
C866        C867   1.414       .  A
C867        C868   1.397       .  A
C867       Br874   1.923       .  S
C868        C869   1.404       .  A
C868        H873   1.082       .  S
C869        C870   1.412       .  A
C870       Br871   1.920       .  S
C875        C876   1.409       .  A
C875        C880   1.398       .  A
C875        H882   1.083       .  S
C876        C877   1.420       .  A
C877        C878   1.404       .  A
C877       Br884   1.921       .  S
C878        C879   1.401       .  A
C878        H883   1.084       .  S
C879        C880   1.406       .  A
C880       Br881   1.921       .  S
C885        C886   1.407       .  A
C885        C890   1.399       .  A
C885        H892   1.081       .  S
C886        C887   1.414       .  A
C887        C888   1.404       .  A
C887       Br894   1.920       .  S
C888        C889   1.405       .  A
C888        H893   1.082       .  S
C889        C890   1.406       .  A
C890       Br891   1.917       .  S
C895        C896   1.407       .  A
C895        C900   1.395       .  A
C895        H902   1.082       .  S
C896        C897   1.416       .  A
C897        C898   1.405       .  A
C897       Br904   1.919       .  S
C898        C899   1.402       .  A
C898        H903   1.082       .  S
C899        C900   1.404       .  A
C900       Br901   1.919       .  S
C905        C906   1.402       .  A
C905        C910   1.396       .  A
C905        H912   1.083       .  S
C906        C907   1.407       .  A
C907        C908   1.399       .  A
C907       Br914   1.919       .  S
C908        C909   1.407       .  A
C908        H913   1.083       .  S
C909        C910   1.415       .  A
C910       Br911   1.924       .  S
C915        C916   1.403       .  A
C915        C920   1.400       .  A
C915        H922   1.081       .  S
C916        C917   1.408       .  A
C917        C918   1.396       .  A
C917       Br924   1.918       .  S
C918        C919   1.399       .  A
C918        H923   1.081       .  S
C919        C920   1.407       .  A
C920       Br921   1.918       .  S
C925        C926   1.404       .  A
C925        C930   1.403       .  A
C925        H932   1.083       .  S
C926        C927   1.411       .  A
C927        C928   1.399       .  A
C927       Br934   1.922       .  S
C928        C929   1.409       .  A
C928        H933   1.083       .  S
C929        C930   1.418       .  A
C930       Br931   1.922       .  S
C935        C936   1.408       .  A
C935        C940   1.396       .  A
C935        H942   1.083       .  S
C936        C937   1.417       .  A
C937        C938   1.403       .  A
C937       Br944   1.921       .  S
C938        C939   1.403       .  A
C938        H943   1.084       .  S
C939        C940   1.406       .  A
C940       Br941   1.921       .  S
C945        C946   1.410       .  A
C945        C950   1.405       .  A
C945        H952   1.082       .  S
C946        C947   1.418       .  A
C947        C948   1.400       .  A
C947       Br954   1.920       .  S
C948        C949   1.402       .  A
C948        H953   1.082       .  S
C949        C950   1.410       .  A
C950       Br951   1.919       .  S
C955        H962   1.086       .  S
C956        C957   1.414       .  A
C957        C958   1.394       .  A
C957       Br964   1.922       .  S
C958        C959   1.399       .  A
C958        H963   1.086       .  S
C959        C960   1.407       .  A
C965        C966   1.407       .  A
C965        C970   1.400       .  A
C965        H972   1.083       .  S
C966        C967   1.413       .  A
C967        C968   1.395       .  A
C967       Br974   1.922       .  S
C968        C969   1.402       .  A
C968        H973   1.080       .  S
C969        C970   1.409       .  A
C975        C976   1.406       .  A
C975        C980   1.395       .  A
C975        H982   1.084       .  S
C976        C977   1.416       .  A
C978        H983   1.084       .  S
C979        C980   1.409       .  A
C980       Br981   1.922       .  S
C985        C986   1.404       .  A
C985        C990   1.405       .  A
C985       C1448   1.485       .  S
C986        C987   1.398       .  A
C986        H991   1.084       .  S
C987        C988   1.400       .  A
C987       C1471   1.472       .  S
C988        C989   1.401       .  A
C988        H992   1.083       .  S
C989        C990   1.404       .  A
C989       C1461   1.481       .  S
C990        H993   1.084       .  S
C994        C995   1.406       .  A
C994        C999   1.407       .  A
C994       C1175   1.487       .  S
C995        C996   1.406       .  A
C995       H1000   1.082       .  S
C996        C997   1.400       .  A
C996       C1195   1.479       .  S
C997        C998   1.399       .  A
C997       H1001   1.084       .  S
C998        C999   1.403       .  A
C998       C1185   1.478       .  S
C999       H1002   1.086       .  S
C1003      C1004   1.403       .  A
C1003      C1008   1.405       .  A
C1003      C1162   1.481       .  S
C1004      C1005   1.398       .  A
C1004      H1009   1.084       .  S
C1005      C1006   1.402       .  A
C1005      C1145   1.471       .  S
C1006      C1007   1.404       .  A
C1006      H1010   1.083       .  S
C1007      C1008   1.405       .  A
C1007      C1152   1.485       .  S
C1008      H1011   1.084       .  S
C1012      C1013   1.403       .  A
C1012      C1017   1.403       .  A
C1012      C1132   1.481       .  S
C1013      C1014   1.406       .  A
C1013      H1018   1.083       .  S
C1014      C1015   1.404       .  A
C1014      C1115   1.482       .  S
C1015      C1016   1.402       .  A
C1015      H1019   1.084       .  S
C1016      C1017   1.400       .  A
C1016      C1125   1.475       .  S
C1017      H1020   1.085       .  S
N1021      N1022   1.318       .  A
N1021      N1027   1.313       .  A
N1021     Mn1050   2.193       .  S
N1022      C1029   1.352       .  A
N1023      N1025   1.314       .  A
N1023      N1024   1.323       .  A
N1023     Mn1039   2.205       .  S
N1024      C1030   1.355       .  A
N1025      N1026   1.316       .  A
N1025     Mn1050   2.187       .  S
N1026      C1030   1.351       .  A
N1027      N1028   1.317       .  A
N1027     Mn1039   2.187       .  S
N1028      C1029   1.354       .  A
C1029      C1222   1.481       .  S
C1030      C1142   1.478       .  S
N1031      N1032   1.321       .  A
N1031     Mn1061   2.200       .  S
N1032      C1040   1.352       .  A
N1033      N1034   1.320       .  A
N1033      N1035   1.316       .  A
N1033     Mn1531   2.197       .  S
N1034      C1041   1.352       .  A
N1035      N1036   1.319       .  A
N1036      C1041   1.352       .  A
N1037      N1038   1.314       .  A
N1037     Mn1039   2.165       .  S
Mn1039     N1525   2.201   1_545  S
C1040      C1097   1.452       .  S
C1041      C1165   1.469       .  S
N1042      N1043   1.318       .  A
N1042      N1048   1.314       .  A
N1043      C1051   1.352       .  A
N1044      N1291   1.319       .  A
N1044     Mn1062   2.198       .  S
N1045      N1290   1.319   1_554  A
N1045      C1052   1.351   1_655  A
N1046      N1293   1.318       .  A
N1046     Mn1050   2.184       .  S
N1047      N1292   1.320   1_554  A
N1048      N1049   1.320       .  A
N1048     Mn1554   2.196   1_545  S
N1049      C1051   1.352       .  A
C1051      C1205   1.471       .  S
C1052      C1085   1.463       .  S
N1053      N1054   1.317       .  A
N1053      N1059   1.315       .  A
N1053     Mn1061   2.199       .  S
N1054      C1064   1.352       .  A
N1055      N1056   1.319       .  A
N1055      N1057   1.315       .  A
N1055     Mn1062   2.200       .  S
N1056      C1065   1.353       .  A
N1057      N1058   1.321       .  A
N1057     Mn1061   2.201       .  S
N1058      C1065   1.355       .  A
N1059      N1060   1.322       .  A
N1059     Mn1062   2.196       .  S
N1060      C1064   1.355       .  A
Mn1061    Cl1063   2.539       .  S
Mn1062     N1540   2.190       .  S
Mn1062    Cl1063   2.551       .  S
C1064      C1212   1.480       .  S
C1065      C1155   1.484       .  S
N1066      N1067   1.324       .  A
N1066      N1072   1.315       .  A
N1066     Mn1095   2.215       .  S
N1067      C1074   1.359       .  A
N1068      N1070   1.316       .  A
N1068      N1069   1.323       .  A
N1068     Mn1084   2.218       .  S
N1069      C1075   1.358       .  A
N1070      N1071   1.317       .  A
N1070     Mn1095   2.192       .  S
N1071      C1075   1.350       .  A
N1072      N1073   1.315       .  A
N1072     Mn1084   2.185       .  S
N1073      C1074   1.348       .  A
C1074      C1192   1.487       .  S
C1075      C1112   1.489       .  S
N1076      N1077   1.318       .  A
N1076     Mn1106   2.198       .  S
N1077      C1085   1.350   1_655  A
N1078      N1079   1.321       .  A
N1078      N1080   1.317       .  A
N1078     Mn1576   2.213       .  S
N1079      C1086   1.354       .  A
N1080      N1081   1.320       .  A
N1081      C1086   1.351       .  A
N1082      N1083   1.320       .  A
N1082     Mn1084   2.199       .  S
Mn1084     N1570   2.211   1_545  S
C1086      C1135   1.472       .  S
N1087      N1088   1.320       .  A
N1087      N1093   1.316       .  A
N1088      C1096   1.353       .  A
N1089      N1090   1.320       .  A
N1089     Mn1107   2.189       .  S
N1090      C1097   1.350       .  A
N1091      N1092   1.318       .  A
N1091     Mn1095   2.201       .  S
N1093      N1094   1.322       .  A
N1093     Mn1599   2.204   1_545  S
N1094      C1096   1.353       .  A
C1096      C1172   1.475       .  S
N1098      N1099   1.321       .  A
N1098      N1104   1.314       .  A
N1098     Mn1106   2.211       .  S
N1099      C1109   1.357       .  A
N1100      N1101   1.317       .  A
N1100      N1102   1.314       .  A
N1100     Mn1107   2.193       .  S
N1101      C1110   1.353       .  A
N1102      N1103   1.321       .  A
N1102     Mn1106   2.201       .  S
N1103      C1110   1.354       .  A
N1104      N1105   1.319       .  A
N1104     Mn1107   2.195       .  S
N1105      C1109   1.352       .  A
Mn1106    Cl1108   2.551       .  S
Mn1107     N1585   2.192       .  S
Mn1107    Cl1108   2.545       .  S
C1109      C1182   1.490       .  S
C1110      C1122   1.486       .  S
C1111      C1112   1.408       .  A
C1111      C1116   1.402       .  A
C1111      H1118   1.082       .  S
C1112      C1113   1.419       .  A
C1113      C1114   1.396       .  A
C1113     Br1120   1.922       .  S
C1114      C1115   1.401       .  A
C1114      H1119   1.083       .  S
C1115      C1116   1.408       .  A
C1116     Br1117   1.919       .  S
C1121      C1122   1.406       .  A
C1121      C1126   1.392       .  A
C1121      H1128   1.083       .  S
C1122      C1123   1.417       .  A
C1123      C1124   1.403       .  A
C1123     Br1130   1.921       .  S
C1124      C1125   1.402       .  A
C1124      H1129   1.083       .  S
C1125      C1126   1.406       .  A
C1126     Br1127   1.921       .  S
C1131      C1132   1.405       .  A
C1131      C1136   1.396       .  A
C1131      H1138   1.081       .  S
C1132      C1133   1.410       .  A
C1133      C1134   1.401       .  A
C1133     Br1140   1.919       .  S
C1134      C1135   1.404       .  A
C1134      H1139   1.082       .  S
C1135      C1136   1.406       .  A
C1136     Br1137   1.919       .  S
C1141      C1142   1.404       .  A
C1141      C1146   1.390       .  A
C1141      H1148   1.082       .  S
C1142      C1143   1.413       .  A
C1143      C1144   1.405       .  A
C1143     Br1150   1.919       .  S
C1144      C1145   1.403       .  A
C1144      H1149   1.082       .  S
C1145      C1146   1.404       .  A
C1146     Br1147   1.920       .  S
C1151      C1152   1.404       .  A
C1151      C1156   1.398       .  A
C1151      H1158   1.082       .  S
C1152      C1153   1.410       .  A
C1153      C1154   1.399       .  A
C1153     Br1160   1.920       .  S
C1154      C1155   1.407       .  A
C1154      H1159   1.083       .  S
C1155      C1156   1.414       .  A
C1156     Br1157   1.923       .  S
C1161      C1162   1.405       .  A
C1161      C1166   1.399       .  A
C1161      H1168   1.081       .  S
C1162      C1163   1.414       .  A
C1163      C1164   1.395       .  A
C1163     Br1170   1.921       .  S
C1164      C1165   1.399       .  A
C1164      H1169   1.079       .  S
C1165      C1166   1.408       .  A
C1166     Br1167   1.919       .  S
C1171      C1172   1.404       .  A
C1171      C1176   1.404       .  A
C1171      H1178   1.083       .  S
C1172      C1173   1.406       .  A
C1173      C1174   1.397       .  A
C1173     Br1180   1.918       .  S
C1174      C1175   1.405       .  A
C1174      H1179   1.082       .  S
C1175      C1176   1.413       .  A
C1176     Br1177   1.920       .  S
C1181      C1182   1.407       .  A
C1181      C1186   1.397       .  A
C1181      H1188   1.083       .  S
C1182      C1183   1.421       .  A
C1183      C1184   1.402       .  A
C1183     Br1190   1.923       .  S
C1184      C1185   1.401       .  A
C1184      H1189   1.084       .  S
C1185      C1186   1.407       .  A
C1186     Br1187   1.921       .  S
C1191      C1192   1.408       .  A
C1191      C1196   1.401       .  A
C1191      H1198   1.082       .  S
C1192      C1193   1.420       .  A
C1193      C1194   1.396       .  A
C1193     Br1200   1.923       .  S
C1194      C1195   1.399       .  A
C1194      H1199   1.083       .  S
C1195      C1196   1.408       .  A
C1196     Br1197   1.919       .  S
C1201      C1448   1.407       .  A
C1201      C1452   1.396       .  A
C1201      H1208   1.086   1_556  S
C1202      C1447   1.404       .  A
C1202      C1203   1.413       .  A
C1202      C1231   1.479       .  S
C1203      C1204   1.395       .  A
C1203     Br1210   1.922       .  S
C1204      C1205   1.401       .  A
C1204      H1209   1.086       .  S
C1205      C1206   1.409       .  A
C1206      C1447   1.397       .  A
C1206     Br1453   1.919       .  S
Br1207     C1452   1.920   1_554  S
C1211      C1212   1.408       .  A
C1211      C1216   1.402       .  A
C1211      H1218   1.083       .  S
C1212      C1213   1.412       .  A
C1213      C1214   1.392       .  A
C1213     Br1220   1.921       .  S
C1214      C1215   1.401       .  A
C1214      H1219   1.081       .  S
C1215      C1216   1.409       .  A
C1215      C1235   1.479       .  S
C1216     Br1463   1.920       .  S
Br1217     C1462   1.921   1_554  S
C1221      C1222   1.407       .  A
C1221      C1226   1.394       .  A
C1221      H1228   1.084       .  S
C1222      C1223   1.417       .  A
C1223      C1470   1.397       .  A
C1223     Br1476   1.922       .  S
C1224      C1469   1.397       .  A
C1224      C1471   1.400       .  A
C1224      H1229   1.085   1_556  S
C1225      C1470   1.400       .  A
C1225      C1226   1.407       .  A
C1225      C1233   1.472       .  S
C1226     Br1227   1.921       .  S
Br1230     C1469   1.923   1_554  S
C1231      C1232   1.401       .  A
C1231      C1236   1.403       .  A
C1232      C1233   1.399       .  A
C1232      H1237   1.085       .  S
C1233      C1234   1.401       .  A
C1234      C1235   1.402       .  A
C1234      H1238   1.083       .  S
C1235      C1236   1.403       .  A
C1236      H1239   1.085       .  S
C1240      C1241   1.409       .  A
C1240      C1245   1.406       .  A
C1240      C1421   1.492       .  S
C1241      C1242   1.407       .  A
C1241      H1246   1.082       .  S
C1242      C1243   1.401       .  A
C1242      C1441   1.482       .  S
C1243      C1244   1.399       .  A
C1243      H1247   1.084       .  S
C1244      C1245   1.402       .  A
C1244      C1431   1.474       .  S
C1245      H1248   1.085       .  S
C1249      C1250   1.404       .  A
C1249      C1254   1.401       .  A
C1249      C1408   1.477       .  S
C1250      C1251   1.402       .  A
C1250      H1255   1.084       .  S
C1251      C1252   1.402       .  A
C1251      C1391   1.477       .  S
C1252      C1253   1.405       .  A
C1252      H1256   1.084       .  S
C1253      C1254   1.403       .  A
C1253      C1398   1.478       .  S
C1254      H1257   1.085       .  S
C1258      C1259   1.407       .  A
C1258      C1263   1.406       .  A
C1258      C1378   1.487       .  S
C1259      C1260   1.408       .  A
C1259      H1264   1.083       .  S
C1260      C1261   1.406       .  A
C1260      C1361   1.489       .  S
C1261      C1262   1.401       .  A
C1261      H1265   1.083       .  S
C1262      C1263   1.400       .  A
C1262      C1371   1.477       .  S
C1263      H1266   1.085       .  S
N1267      N1268   1.318       .  A
N1267      N1273   1.314       .  A
N1267     Mn1296   2.191       .  S
N1268      C1275   1.352       .  A
N1269      N1271   1.315       .  A
N1269      N1270   1.322       .  A
N1269     Mn1285   2.207       .  S
N1270      C1276   1.355       .  A
N1271      N1272   1.319       .  A
N1271     Mn1296   2.203       .  S
N1272      C1276   1.354       .  A
N1273      N1274   1.318       .  A
N1273     Mn1285   2.196       .  S
N1274      C1275   1.354       .  A
C1275      C1468   1.481       .  S
C1276      C1388   1.489       .  S
N1277      N1278   1.317       .  A
N1277     Mn1307   2.184       .  S
N1278      C1286   1.348   1_655  A
N1279      N1280   1.320       .  A
N1279      N1281   1.316       .  A
N1279     Mn1777   2.201       .  S
N1280      C1287   1.352       .  A
N1281      N1282   1.319       .  A
N1282      C1287   1.350       .  A
N1283      N1284   1.320       .  A
N1283     Mn1285   2.196       .  S
Mn1285     N1771   2.197   1_545  S
C1286      C1343   1.452   1_455  S
C1287      C1411   1.464       .  S
N1288      N1289   1.318       .  A
N1288      N1294   1.315       .  A
N1289      C1297   1.351       .  A
N1290     Mn1308   2.197       .  S
N1291      C1298   1.351       .  A
N1292     Mn1296   2.203       .  S
N1294      N1295   1.319       .  A
N1294     Mn1800   2.193   1_545  S
N1295      C1297   1.352       .  A
C1297      C1451   1.469       .  S
C1298      C1331   1.458       .  S
N1299      N1300   1.317       .  A
N1299      N1305   1.314       .  A
N1299     Mn1307   2.190       .  S
N1300      C1310   1.350       .  A
N1301      N1302   1.317       .  A
N1301      N1303   1.314       .  A
N1301     Mn1308   2.200       .  S
N1302      C1311   1.352       .  A
N1303      N1304   1.321       .  A
N1303     Mn1307   2.198       .  S
N1304      C1311   1.355       .  A
N1305      N1306   1.321       .  A
N1305     Mn1308   2.201       .  S
N1306      C1310   1.355       .  A
Mn1307    Cl1309   2.537   1_655  S
Mn1308     N1786   2.197       .  S
Mn1308    Cl1309   2.550   1_655  S
C1310      C1458   1.479       .  S
C1311      C1401   1.484       .  S
N1312      N1313   1.323       .  A
N1312      N1318   1.314       .  A
N1312     Mn1341   2.210       .  S
N1313      C1320   1.357       .  A
N1314      N1316   1.316       .  A
N1314      N1315   1.323       .  A
N1314     Mn1330   2.217       .  S
N1315      C1321   1.357       .  A
N1316      N1317   1.318       .  A
N1316     Mn1341   2.199       .  S
N1317      C1321   1.352       .  A
N1318      N1319   1.318       .  A
N1318     Mn1330   2.199       .  S
N1319      C1320   1.352       .  A
C1320      C1438   1.490       .  S
C1321      C1358   1.487       .  S
N1322      N1323   1.319       .  A
N1322     Mn1352   2.190       .  S
N1323      C1331   1.350       .  A
N1324      N1325   1.320       .  A
N1324      N1326   1.317       .  A
N1324     Mn1822   2.209       .  S
N1325      C1332   1.353       .  A
N1326      N1327   1.321       .  A
N1327      C1332   1.352       .  A
N1328      N1329   1.319       .  A
N1328     Mn1330   2.199       .  S
Mn1330     N1816   2.216   1_545  S
C1332      C1381   1.473       .  S
N1333      N1334   1.322       .  A
N1333      N1339   1.317       .  A
N1334      C1342   1.354       .  A
N1335      N1336   1.319       .  A
N1335     Mn1353   2.200       .  S
N1336      C1343   1.351       .  A
N1337      N1338   1.319       .  A
N1337     Mn1341   2.190       .  S
N1339      N1340   1.321       .  A
N1339     Mn1845   2.209   1_545  S
N1340      C1342   1.353       .  A
C1342      C1418   1.480       .  S
N1344      N1345   1.319       .  A
N1344      N1350   1.315       .  A
N1344     Mn1352   2.200       .  S
N1345      C1355   1.354       .  A
N1346      N1347   1.321       .  A
N1346      N1348   1.315       .  A
N1346     Mn1353   2.206       .  S
N1347      C1356   1.356       .  A
N1348      N1349   1.321       .  A
N1348     Mn1352   2.207       .  S
N1349      C1356   1.354       .  A
N1350      N1351   1.321       .  A
N1350     Mn1353   2.203       .  S
N1351      C1355   1.354       .  A
Mn1352    Cl1354   2.550       .  S
Mn1353     N1831   2.198       .  S
Mn1353    Cl1354   2.547       .  S
C1355      C1428   1.487       .  S
C1356      C1368   1.490       .  S
C1357      C1358   1.406       .  A
C1357      C1362   1.402       .  A
C1357      H1364   1.082       .  S
C1358      C1359   1.414       .  A
C1359      C1360   1.399       .  A
C1359     Br1366   1.922       .  S
C1360      C1361   1.405       .  A
C1360      H1365   1.082       .  S
C1361      C1362   1.412       .  A
C1362     Br1363   1.921       .  S
C1367      C1368   1.407       .  A
C1367      C1372   1.397       .  A
C1367      H1374   1.084       .  S
C1368      C1369   1.419       .  A
C1369      C1370   1.404       .  A
C1369     Br1376   1.921       .  S
C1370      C1371   1.400       .  A
C1370      H1375   1.084       .  S
C1371      C1372   1.405       .  A
C1372     Br1373   1.920       .  S
C1377      C1378   1.406       .  A
C1377      C1382   1.396       .  A
C1377      H1384   1.082       .  S
C1378      C1379   1.413       .  A
C1379      C1380   1.403       .  A
C1379     Br1386   1.920       .  S
C1380      C1381   1.404       .  A
C1380      H1385   1.083       .  S
C1381      C1382   1.405       .  A
C1382     Br1383   1.918       .  S
C1387      C1388   1.407       .  A
C1387      C1392   1.396       .  A
C1387      H1394   1.082       .  S
C1388      C1389   1.417       .  A
C1389      C1390   1.404       .  A
C1389     Br1396   1.920       .  S
C1390      C1391   1.401       .  A
C1390      H1395   1.082       .  S
C1391      C1392   1.405       .  A
C1392     Br1393   1.917       .  S
C1397      C1398   1.401       .  A
C1397      C1402   1.395       .  A
C1397      H1404   1.083       .  S
C1398      C1399   1.407       .  A
C1399      C1400   1.401       .  A
C1399     Br1406   1.919       .  S
C1400      C1401   1.409       .  A
C1400      H1405   1.083       .  S
C1401      C1402   1.415       .  A
C1402     Br1403   1.923       .  S
C1407      C1408   1.405       .  A
C1407      C1412   1.401       .  A
C1407      H1414   1.081       .  S
C1408      C1409   1.410       .  A
C1409      C1410   1.395       .  A
C1409     Br1416   1.916       .  S
C1410      C1411   1.398       .  A
C1410      H1415   1.081       .  S
C1411      C1412   1.406       .  A
C1412     Br1413   1.918       .  S
C1417      C1418   1.404       .  A
C1417      C1422   1.402       .  A
C1417      H1424   1.083       .  S
C1418      C1419   1.409       .  A
C1419      C1420   1.400       .  A
C1419     Br1426   1.921       .  S
C1420      C1421   1.408       .  A
C1420      H1425   1.084       .  S
C1421      C1422   1.414       .  A
C1422     Br1423   1.921       .  S
C1427      C1428   1.407       .  A
C1427      C1432   1.395       .  A
C1427      H1434   1.083       .  S
C1428      C1429   1.418       .  A
C1429      C1430   1.403       .  A
C1429     Br1436   1.921       .  S
C1430      C1431   1.401       .  A
C1430      H1435   1.084       .  S
C1431      C1432   1.405       .  A
C1432     Br1433   1.921       .  S
C1437      C1438   1.410       .  A
C1437      C1442   1.403       .  A
C1437      H1444   1.082       .  S
C1438      C1439   1.418       .  A
C1439      C1440   1.395       .  A
C1439     Br1446   1.922       .  S
C1440      C1441   1.400       .  A
C1440      H1445   1.083       .  S
C1441      C1442   1.408       .  A
C1442     Br1443   1.919       .  S
C1447      H1454   1.086       .  S
C1448      C1449   1.416       .  A
C1449      C1450   1.394       .  A
C1449     Br1456   1.922       .  S
C1450      C1451   1.399       .  A
C1450      H1455   1.086       .  S
C1451      C1452   1.408       .  A
C1457      C1458   1.406       .  A
C1457      C1462   1.400       .  A
C1457      H1464   1.083       .  S
C1458      C1459   1.413       .  A
C1459      C1460   1.395       .  A
C1459     Br1466   1.923       .  S
C1460      C1461   1.403       .  A
C1460      H1465   1.080       .  S
C1461      C1462   1.410       .  A
C1467      C1468   1.407       .  A
C1467      C1472   1.395       .  A
C1467      H1474   1.084       .  S
C1468      C1469   1.417       .  A
C1470      H1475   1.085       .  S
C1471      C1472   1.406       .  A
C1472     Br1473   1.921       .  S
C1477      C1478   1.402       .  A
C1477      C1482   1.403       .  A
C1477      C1940   1.480       .  S
C1478      C1479   1.399       .  A
C1478      H1483   1.084       .  S
C1479      C1480   1.402       .  A
C1479      C1963   1.475       .  S
C1480      C1481   1.401       .  A
C1480      H1484   1.083       .  S
C1481      C1482   1.403       .  A
C1481      C1953   1.480       .  S
C1482      H1485   1.085       .  S
C1486      C1487   1.403       .  A
C1486      C1491   1.404       .  A
C1486      C1667   1.485       .  S
C1487      C1488   1.404       .  A
C1487      H1492   1.082       .  S
C1488      C1489   1.405       .  A
C1488      C1687   1.481       .  S
C1489      C1490   1.404       .  A
C1489      H1493   1.084       .  S
C1490      C1491   1.403       .  A
C1490      C1677   1.478       .  S
C1491      H1494   1.086       .  S
C1495      C1496   1.404       .  A
C1495      C1500   1.405       .  A
C1495      C1654   1.481       .  S
C1496      C1497   1.400       .  A
C1496      H1501   1.084       .  S
C1497      C1498   1.400       .  A
C1497      C1637   1.470       .  S
C1498      C1499   1.402       .  A
C1498      H1502   1.084       .  S
C1499      C1500   1.405       .  A
C1499      C1644   1.482       .  S
C1500      H1503   1.084       .  S
C1504      C1505   1.404       .  A
C1504      C1509   1.401       .  A
C1504      C1624   1.479       .  S
C1505      C1506   1.405       .  A
C1505      H1510   1.083       .  S
C1506      C1507   1.403       .  A
C1506      C1607   1.478       .  S
C1507      C1508   1.402       .  A
C1507      H1511   1.084       .  S
C1508      C1509   1.399       .  A
C1508      C1617   1.472       .  S
C1509      H1512   1.085       .  S
N1513      N1514   1.320       .  A
N1513      N1519   1.314       .  A
N1513     Mn1542   2.202       .  S
N1514      C1521   1.353       .  A
N1515      N1517   1.314       .  A
N1515      N1516   1.324       .  A
N1515     Mn1531   2.206       .  S
N1516      C1522   1.356       .  A
N1517      N1518   1.315       .  A
N1517     Mn1542   2.189       .  S
N1518      C1522   1.351       .  A
N1519      N1520   1.320       .  A
N1519     Mn1531   2.198       .  S
N1520      C1521   1.355       .  A
C1521      C1714   1.488       .  S
C1522      C1634   1.482       .  S
N1523      N1524   1.321       .  A
N1523     Mn1553   2.208       .  S
N1524      C1532   1.354       .  A
N1525      N1526   1.321       .  A
N1525      N1527   1.316       .  A
N1526      C1533   1.353       .  A
N1527      N1528   1.319       .  A
N1528      C1533   1.352       .  A
N1529      N1530   1.315       .  A
N1529     Mn1531   2.179       .  S
C1532      C1589   1.450       .  S
C1533      C1657   1.471       .  S
N1534      N1535   1.319       .  A
N1534      N1540   1.314       .  A
N1535      C1543   1.352       .  A
N1536      N1783   1.318       .  A
N1536     Mn1554   2.193       .  S
N1537      N1782   1.320   1_554  A
N1537      C1544   1.351   1_665  A
N1538      N1785   1.319       .  A
N1538     Mn1542   2.193       .  S
N1539      N1784   1.322   1_554  A
N1540      N1541   1.319       .  A
N1541      C1543   1.351       .  A
C1543      C1697   1.471       .  S
C1544      C1577   1.461   1_545  S
N1545      N1546   1.318       .  A
N1545      N1551   1.315       .  A
N1545     Mn1553   2.198       .  S
N1546      C1556   1.352       .  A
N1547      N1548   1.318       .  A
N1547      N1549   1.315       .  A
N1547     Mn1554   2.191       .  S
N1548      C1557   1.350       .  A
N1549      N1550   1.321       .  A
N1549     Mn1553   2.209       .  S
N1550      C1557   1.357       .  A
N1551      N1552   1.321       .  A
N1551     Mn1554   2.200       .  S
N1552      C1556   1.355       .  A
Mn1553    Cl1555   2.540       .  S
Mn1554    Cl1555   2.545       .  S
C1556      C1704   1.482       .  S
C1557      C1647   1.486       .  S
N1558      N1559   1.326       .  A
N1558      N1564   1.315       .  A
N1558     Mn1587   2.217       .  S
N1559      C1566   1.360       .  A
N1560      N1562   1.314       .  A
N1560      N1561   1.325       .  A
N1560     Mn1576   2.222       .  S
N1561      C1567   1.360       .  A
N1562      N1563   1.315       .  A
N1562     Mn1587   2.181       .  S
N1563      C1567   1.347       .  A
N1564      N1565   1.315       .  A
N1564     Mn1576   2.193       .  S
N1565      C1566   1.349       .  A
C1566      C1684   1.491       .  S
C1567      C1604   1.488       .  S
N1568      N1569   1.320       .  A
N1568     Mn1598   2.197       .  S
N1569      C1577   1.351   1_655  A
N1570      N1571   1.321       .  A
N1570      N1572   1.316       .  A
N1571      C1578   1.354       .  A
N1572      N1573   1.320       .  A
N1573      C1578   1.351       .  A
N1574      N1575   1.322       .  A
N1574     Mn1576   2.204       .  S
C1578      C1627   1.472       .  S
N1579      N1580   1.321       .  A
N1579      N1585   1.315       .  A
N1580      C1588   1.353       .  A
N1581      N1582   1.317       .  A
N1581     Mn1599   2.172       .  S
N1582      C1589   1.346       .  A
N1583      N1584   1.316       .  A
N1583     Mn1587   2.189       .  S
N1585      N1586   1.320       .  A
N1586      C1588   1.351       .  A
C1588      C1664   1.471       .  S
N1590      N1591   1.320       .  A
N1590      N1596   1.314       .  A
N1590     Mn1598   2.206       .  S
N1591      C1601   1.356       .  A
N1592      N1593   1.315       .  A
N1592      N1594   1.314       .  A
N1592     Mn1599   2.183       .  S
N1593      C1602   1.352       .  A
N1594      N1595   1.320       .  A
N1594     Mn1598   2.197       .  S
N1595      C1602   1.354       .  A
N1596      N1597   1.321       .  A
N1596     Mn1599   2.202       .  S
N1597      C1601   1.353       .  A
Mn1598    Cl1600   2.550   1_655  S
Mn1599    Cl1600   2.546   1_655  S
C1601      C1674   1.490       .  S
C1602      C1614   1.481       .  S
C1603      C1604   1.408       .  A
C1603      C1608   1.402       .  A
C1603      H1610   1.082       .  S
C1604      C1605   1.421       .  A
C1605      C1606   1.396       .  A
C1605     Br1612   1.924       .  S
C1606      C1607   1.398       .  A
C1606      H1611   1.083       .  S
C1607      C1608   1.407       .  A
C1608     Br1609   1.918       .  S
C1613      C1614   1.406       .  A
C1613      C1618   1.390       .  A
C1613      H1620   1.083       .  S
C1614      C1615   1.417       .  A
C1615      C1616   1.401       .  A
C1615     Br1622   1.921       .  S
C1616      C1617   1.401       .  A
C1616      H1621   1.083       .  S
C1617      C1618   1.407       .  A
C1618     Br1619   1.922       .  S
C1623      C1624   1.405       .  A
C1623      C1628   1.397       .  A
C1623      H1630   1.081       .  S
C1624      C1625   1.409       .  A
C1625      C1626   1.401       .  A
C1625     Br1632   1.920       .  S
C1626      C1627   1.404       .  A
C1626      H1631   1.082       .  S
C1627      C1628   1.407       .  A
C1628     Br1629   1.918       .  S
C1633      C1634   1.405       .  A
C1633      C1638   1.388       .  A
C1633      H1640   1.082       .  S
C1634      C1635   1.415       .  A
C1635      C1636   1.406       .  A
C1635     Br1642   1.920       .  S
C1636      C1637   1.404       .  A
C1636      H1641   1.082       .  S
C1637      C1638   1.403       .  A
C1638     Br1639   1.920       .  S
C1643      C1644   1.403       .  A
C1643      C1648   1.399       .  A
C1643      H1650   1.083       .  S
C1644      C1645   1.408       .  A
C1645      C1646   1.398       .  A
C1645     Br1652   1.919       .  S
C1646      C1647   1.406       .  A
C1646      H1651   1.083       .  S
C1647      C1648   1.418       .  A
C1648     Br1649   1.924       .  S
C1653      C1654   1.405       .  A
C1653      C1658   1.401       .  A
C1653      H1660   1.081       .  S
C1654      C1655   1.412       .  A
C1655      C1656   1.396       .  A
C1655     Br1662   1.918       .  S
C1656      C1657   1.400       .  A
C1656      H1661   1.080       .  S
C1657      C1658   1.408       .  A
C1658     Br1659   1.918       .  S
C1663      C1664   1.402       .  A
C1663      C1668   1.399       .  A
C1663      H1670   1.084       .  S
C1664      C1665   1.406       .  A
C1665      C1666   1.398       .  A
C1665     Br1672   1.919       .  S
C1666      C1667   1.407       .  A
C1666      H1671   1.083       .  S
C1667      C1668   1.412       .  A
C1668     Br1669   1.920       .  S
C1673      C1674   1.406       .  A
C1673      C1678   1.395       .  A
C1673      H1680   1.083       .  S
C1674      C1675   1.420       .  A
C1675      C1676   1.404       .  A
C1675     Br1682   1.922       .  S
C1676      C1677   1.401       .  A
C1676      H1681   1.084       .  S
C1677      C1678   1.407       .  A
C1678     Br1679   1.921       .  S
C1683      C1684   1.410       .  A
C1683      C1688   1.406       .  A
C1683      H1690   1.082       .  S
C1684      C1685   1.420       .  A
C1685      C1686   1.393       .  A
C1685     Br1692   1.923       .  S
C1686      C1687   1.398       .  A
C1686      H1691   1.083       .  S
C1687      C1688   1.408       .  A
C1688     Br1689   1.918       .  S
C1693      C1940   1.405       .  A
C1693      C1944   1.397       .  A
C1693      H1700   1.086   1_556  S
C1694      C1939   1.405       .  A
C1694      C1695   1.415       .  A
C1694      C1723   1.483       .  S
C1695      C1696   1.394       .  A
C1695     Br1702   1.921       .  S
C1696      C1697   1.399       .  A
C1696      H1701   1.086       .  S
C1697      C1698   1.410       .  A
C1698      C1939   1.398       .  A
C1698     Br1945   1.920       .  S
Br1699     C1944   1.919   1_554  S
C1703      C1704   1.408       .  A
C1703      C1708   1.401       .  A
C1703      H1710   1.082       .  S
C1704      C1705   1.414       .  A
C1705      C1706   1.395       .  A
C1705     Br1712   1.923       .  S
C1706      C1707   1.402       .  A
C1706      H1711   1.079       .  S
C1707      C1708   1.406       .  A
C1707      C1727   1.479       .  S
C1708     Br1955   1.918       .  S
Br1709     C1954   1.921   1_554  S
C1713      C1714   1.408       .  A
C1713      C1718   1.397       .  A
C1713      H1720   1.083       .  S
C1714      C1715   1.419       .  A
C1715      C1962   1.401       .  A
C1715     Br1968   1.922       .  S
C1716      C1961   1.396       .  A
C1716      C1963   1.401       .  A
C1716      H1721   1.085   1_556  S
C1717      C1962   1.400       .  A
C1717      C1718   1.406       .  A
C1717      C1725   1.476       .  S
C1718     Br1719   1.921       .  S
Br1722     C1961   1.923   1_554  S
C1723      C1724   1.404       .  A
C1723      C1728   1.402       .  A
C1724      C1725   1.402       .  A
C1724      H1729   1.085       .  S
C1725      C1726   1.403       .  A
C1726      C1727   1.404       .  A
C1726      H1730   1.083       .  S
C1727      C1728   1.401       .  A
C1728      H1731   1.085       .  S
C1732      C1733   1.413       .  A
C1732      C1737   1.407       .  A
C1732      C1913   1.501       .  S
C1733      C1734   1.408       .  A
C1733      H1738   1.082       .  S
C1734      C1735   1.403       .  A
C1734      C1933   1.489       .  S
C1735      C1736   1.402       .  A
C1735      H1739   1.083       .  S
C1736      C1737   1.402       .  A
C1736      C1923   1.479       .  S
C1737      H1740   1.083       .  S
C1741      C1742   1.403       .  A
C1741      C1746   1.399       .  A
C1741      C1900   1.472       .  S
C1742      C1743   1.401       .  A
C1742      H1747   1.085       .  S
C1743      C1744   1.403       .  A
C1743      C1883   1.475       .  S
C1744      C1745   1.406       .  A
C1744      H1748   1.083       .  S
C1745      C1746   1.402       .  A
C1745      C1890   1.478       .  S
C1746      H1749   1.085       .  S
C1750      C1751   1.407       .  A
C1750      C1755   1.407       .  A
C1750      C1870   1.491       .  S
C1751      C1752   1.408       .  A
C1751      H1756   1.082       .  S
C1752      C1753   1.404       .  A
C1752      C1853   1.486       .  S
C1753      C1754   1.400       .  A
C1753      H1757   1.083       .  S
C1754      C1755   1.403       .  A
C1754      C1863   1.480       .  S
C1755      H1758   1.085       .  S
N1759      N1760   1.318       .  A
N1759      N1765   1.314       .  A
N1759     Mn1788   2.190       .  S
N1760      C1767   1.351       .  A
N1761      N1763   1.315       .  A
N1761      N1762   1.324       .  A
N1761     Mn1777   2.212       .  S
N1762      C1768   1.356       .  A
N1763      N1764   1.318       .  A
N1763     Mn1788   2.200       .  S
N1764      C1768   1.353       .  A
N1765      N1766   1.318       .  A
N1765     Mn1777   2.196       .  S
N1766      C1767   1.354       .  A
C1767      C1960   1.479       .  S
C1768      C1880   1.487       .  S
N1769      N1770   1.317       .  A
N1769     Mn1799   2.190       .  S
N1770      C1778   1.349   1_665  A
N1771      N1772   1.320       .  A
N1771      N1773   1.316       .  A
N1772      C1779   1.350       .  A
N1773      N1774   1.320       .  A
N1774      C1779   1.352       .  A
N1775      N1776   1.319       .  A
N1775     Mn1777   2.193       .  S
C1778      C1835   1.456   1_455  S
C1779      C1903   1.464       .  S
N1780      N1781   1.318       .  A
N1780      N1786   1.315       .  A
N1781      C1789   1.350       .  A
N1782     Mn1800   2.194       .  S
N1783      C1790   1.351       .  A
N1784     Mn1788   2.204       .  S
N1786      N1787   1.320       .  A
N1787      C1789   1.352       .  A
C1789      C1943   1.467       .  S
C1790      C1823   1.454   1_655  S
N1791      N1792   1.318       .  A
N1791      N1797   1.314       .  A
N1791     Mn1799   2.196       .  S
N1792      C1802   1.352       .  A
N1793      N1794   1.317       .  A
N1793      N1795   1.314       .  A
N1793     Mn1800   2.193       .  S
N1794      C1803   1.351       .  A
N1795      N1796   1.321       .  A
N1795     Mn1799   2.200       .  S
N1796      C1803   1.355       .  A
N1797      N1798   1.321       .  A
N1797     Mn1800   2.198       .  S
N1798      C1802   1.354       .  A
Mn1799    Cl1801   2.539   1_665  S
Mn1800    Cl1801   2.548   1_665  S
C1802      C1950   1.480       .  S
C1803      C1893   1.481       .  S
N1804      N1805   1.324       .  A
N1804      N1810   1.315       .  A
N1804     Mn1833   2.219       .  S
N1805      C1812   1.358       .  A
N1806      N1808   1.315       .  A
N1806      N1807   1.322       .  A
N1806     Mn1822   2.209       .  S
N1807      C1813   1.356       .  A
N1808      N1809   1.317       .  A
N1808     Mn1833   2.191       .  S
N1809      C1813   1.351       .  A
N1810      N1811   1.320       .  A
N1810     Mn1822   2.207       .  S
N1811      C1812   1.353       .  A
C1812      C1930   1.496       .  S
C1813      C1850   1.483       .  S
N1814      N1815   1.317       .  A
N1814     Mn1844   2.186       .  S
N1815      C1823   1.349   1_655  A
N1816      N1817   1.323       .  A
N1816      N1818   1.317       .  A
N1817      C1824   1.355       .  A
N1818      N1819   1.321       .  A
N1819      C1824   1.352       .  A
N1820      N1821   1.320       .  A
N1820     Mn1822   2.200       .  S
C1824      C1873   1.478       .  S
N1825      N1826   1.323       .  A
N1825      N1831   1.316       .  A
N1826      C1834   1.356       .  A
N1827      N1828   1.318       .  A
N1827     Mn1845   2.198       .  S
N1828      C1835   1.351   1_565  A
N1829      N1830   1.318       .  A
N1829     Mn1833   2.184       .  S
N1831      N1832   1.319       .  A
N1832      C1834   1.351       .  A
C1834      C1910   1.484       .  S
N1836      N1837   1.317       .  A
N1836      N1842   1.314       .  A
N1836     Mn1844   2.191       .  S
N1837      C1847   1.353       .  A
N1838      N1839   1.320       .  A
N1838      N1840   1.315       .  A
N1838     Mn1845   2.201       .  S
N1839      C1848   1.355       .  A
N1840      N1841   1.322       .  A
N1840     Mn1844   2.214       .  S
N1841      C1848   1.355       .  A
N1842      N1843   1.323       .  A
N1842     Mn1845   2.214       .  S
N1843      C1847   1.356       .  A
Mn1844    Cl1846   2.548   1_665  S
Mn1845    Cl1846   2.548   1_665  S
C1847      C1920   1.490       .  S
C1848      C1860   1.494       .  S
C1849      C1850   1.406       .  A
C1849      C1854   1.400       .  A
C1849      H1856   1.082       .  S
C1850      C1851   1.414       .  A
C1851      C1852   1.397       .  A
C1851     Br1858   1.923       .  S
C1852      C1853   1.404       .  A
C1852      H1857   1.082       .  S
C1853      C1854   1.412       .  A
C1854     Br1855   1.920       .  S
C1859      C1860   1.409       .  A
C1859      C1864   1.398       .  A
C1859      H1866   1.083       .  S
C1860      C1861   1.420       .  A
C1861      C1862   1.404       .  A
C1861     Br1868   1.921       .  S
C1862      C1863   1.401       .  A
C1862      H1867   1.084       .  S
C1863      C1864   1.406       .  A
C1864     Br1865   1.921       .  S
C1869      C1870   1.407       .  A
C1869      C1874   1.399       .  A
C1869      H1876   1.081       .  S
C1870      C1871   1.414       .  A
C1871      C1872   1.404       .  A
C1871     Br1878   1.920       .  S
C1872      C1873   1.405       .  A
C1872      H1877   1.082       .  S
C1873      C1874   1.406       .  A
C1874     Br1875   1.917       .  S
C1879      C1880   1.407       .  A
C1879      C1884   1.395       .  A
C1879      H1886   1.082       .  S
C1880      C1881   1.416       .  A
C1881      C1882   1.405       .  A
C1881     Br1888   1.919       .  S
C1882      C1883   1.402       .  A
C1882      H1887   1.082       .  S
C1883      C1884   1.404       .  A
C1884     Br1885   1.919       .  S
C1889      C1890   1.402       .  A
C1889      C1894   1.396       .  A
C1889      H1896   1.083       .  S
C1890      C1891   1.407       .  A
C1891      C1892   1.399       .  A
C1891     Br1898   1.919       .  S
C1892      C1893   1.407       .  A
C1892      H1897   1.083       .  S
C1893      C1894   1.415       .  A
C1894     Br1895   1.924       .  S
C1899      C1900   1.403       .  A
C1899      C1904   1.400       .  A
C1899      H1906   1.081       .  S
C1900      C1901   1.408       .  A
C1901      C1902   1.396       .  A
C1901     Br1908   1.918       .  S
C1902      C1903   1.399       .  A
C1902      H1907   1.081       .  S
C1903      C1904   1.407       .  A
C1904     Br1905   1.918       .  S
C1909      C1910   1.404       .  A
C1909      C1914   1.403       .  A
C1909      H1916   1.083       .  S
C1910      C1911   1.411       .  A
C1911      C1912   1.399       .  A
C1911     Br1918   1.922       .  S
C1912      C1913   1.409       .  A
C1912      H1917   1.083       .  S
C1913      C1914   1.418       .  A
C1914     Br1915   1.922       .  S
C1919      C1920   1.408       .  A
C1919      C1924   1.396       .  A
C1919      H1926   1.083       .  S
C1920      C1921   1.417       .  A
C1921      C1922   1.403       .  A
C1921     Br1928   1.921       .  S
C1922      C1923   1.403       .  A
C1922      H1927   1.084       .  S
C1923      C1924   1.406       .  A
C1924     Br1925   1.921       .  S
C1929      C1930   1.410       .  A
C1929      C1934   1.405       .  A
C1929      H1936   1.082       .  S
C1930      C1931   1.418       .  A
C1931      C1932   1.400       .  A
C1931     Br1938   1.920       .  S
C1932      C1933   1.402       .  A
C1932      H1937   1.082       .  S
C1933      C1934   1.410       .  A
C1934     Br1935   1.919       .  S
C1939      H1946   1.086       .  S
C1940      C1941   1.414       .  A
C1941      C1942   1.394       .  A
C1941     Br1948   1.922       .  S
C1942      C1943   1.399       .  A
C1942      H1947   1.086       .  S
C1943      C1944   1.407       .  A
C1949      C1950   1.407       .  A
C1949      C1954   1.400       .  A
C1949      H1956   1.083       .  S
C1950      C1951   1.413       .  A
C1951      C1952   1.395       .  A
C1951     Br1958   1.922       .  S
C1952      C1953   1.402       .  A
C1952      H1957   1.080       .  S
C1953      C1954   1.409       .  A
C1959      C1960   1.406       .  A
C1959      C1964   1.395       .  A
C1959      H1966   1.084       .  S
C1960      C1961   1.416       .  A
C1962      H1967   1.084       .  S
C1963      C1964   1.409       .  A
C1964     Br1965   1.922       .  S
