geometry optimzed in LAMMPS
_audit_creation_date              2020-12-01 
_audit_creation_method            'lammps2cif' 
_symmetry_space_group_name_H-M    'P1' 
_symmetry_Int_Tables_number       1 
_symmetry_cell_setting            triclinic 
loop_ 
_symmetry_equiv_pos_as_xyz 
  x,y,z 
_cell_length_a                    25.11229938 
_cell_length_b                    25.190919645178937 
_cell_length_c                    77.70616038554826 
_cell_angle_alpha                 90.0609473898502 
_cell_angle_beta                  89.96847750437767 
_cell_angle_gamma                 90.2764736171515 
loop_ 
_atom_site_label 
_atom_site_type_symbol 
_atom_site_fract_x 
_atom_site_fract_y 
_atom_site_fract_z 
_atom_site_charge 
C1          C  0.50366404  0.99380339  0.24916547    -0.02300
C2          C  0.94752138  0.50098578  0.99120025     0.02500
C3          C  0.94806758  0.50165169  0.00939212     0.02400
C4          C  0.99714184  0.50025230  0.01809384    -0.18100
C5          C  0.04574303  0.49882649  0.00915619     0.02500
C6          C  0.04505239  0.49886119  0.99096456     0.02400
C7          C  0.99607075  0.49981222  0.98229022    -0.18100
H8          H  0.99574598  0.49951424  0.96833122     0.04500
H9          H  0.99751624  0.50048319  0.03205068     0.04500
C10         C  0.49979780  0.99552090  0.75005855    -0.02300
C11         C  0.99891465  0.50330066  0.75010352    -0.02300
C12         C  0.51289999  0.94997096  0.01014852     0.02500
C13         C  0.50647232  0.94781320  0.99212577     0.02400
C14         C  0.50502642  0.99516550  0.98270622    -0.18100
C15         C  0.51053849  0.04458292  0.99080884     0.02500
C16         C  0.51745605  0.04704657  0.00883145     0.02400
C17         C  0.51843413  0.99951105  0.01825555    -0.18100
H18         H  0.52206485  0.00108746  0.03215366     0.04500
H19         H  0.50045269  0.99351735  0.96883197     0.04500
C20         C  0.65320567  0.51045994  0.90403037     0.42700
N21         N  0.60808804  0.48350475  0.88222268     0.01500
C22         C  0.43779825  0.63851493  0.83355464    -0.06300
H23         H  0.40015632  0.63452380  0.89993330     0.07000
C24         C  0.36294447  0.43759319  0.89515676    -0.06700
Co25       Co  0.55857891  0.57409294  0.86341435     0.74200
N26         N  0.46091457  0.60372510  0.88309295    -0.25900
Co27       Co  0.42159072  0.55970649  0.86429246     0.74100
C28         C  0.34081995  0.48268918  0.90444513     0.42800
N29         N  0.48141433  0.38443699  0.88131523     0.01200
N30         N  0.38635476  0.51140414  0.88300539     0.01300
N31         N  0.52753015  0.64565812  0.83319502    -0.46700
H32         H  0.63418364  0.59798342  0.89829184     0.07000
N33         N  0.51301620  0.60997857  0.88253333     0.01500
N34         N  0.38382394  0.51472298  0.84544977     0.01300
C35         C  0.32916564  0.49089520  0.82566269     0.42900
N36         N  0.53354016  0.39116240  0.88158879    -0.25300
C37         C  0.63868667  0.55709305  0.83322229    -0.06200
N38         N  0.63775538  0.46669194  0.89521355    -0.46400
N39         N  0.34833430  0.53302668  0.83443608    -0.46600
C40         C  0.66697918  0.51142062  0.82608440     0.42700
N41         N  0.51126806  0.61121158  0.84496220     0.01500
N42         N  0.53327865  0.39174117  0.84402713    -0.25300
N43         N  0.60336102  0.53565056  0.88201689    -0.25800
N44         N  0.48089473  0.38672507  0.84387866     0.01200
H45         H  0.59554345  0.35314915  0.82975074     0.07100
H46         H  0.34857004  0.40232143  0.82981462     0.07100
N47         N  0.45891799  0.60658069  0.84554699    -0.25900
N48         N  0.39074323  0.45926617  0.88220008    -0.25500
N49         N  0.60962196  0.48416647  0.84463935     0.01500
C50         C  0.48869408  0.65543824  0.90451699     0.42900
C51         C  0.55394354  0.36213558  0.89442756    -0.06700
N52         N  0.38864492  0.46260396  0.84478183    -0.25500
H53         H  0.35888540  0.39558343  0.89772332     0.07100
N54         N  0.53119321  0.64093706  0.89500471    -0.46700
H55         H  0.59575905  0.35833424  0.89748714     0.07100
C56         C  0.50731156  0.33313637  0.82403890     0.42800
C57         C  0.63082078  0.55623080  0.89521496    -0.06200
Co58       Co  0.57197704  0.43705613  0.86308400     0.73800
N59         N  0.46449936  0.35084720  0.89325156    -0.46400
C60         C  0.48352690  0.66439735  0.82528627     0.43000
N61         N  0.64689333  0.46780996  0.83385853    -0.46400
Co62       Co  0.43473125  0.42246880  0.86293464     0.73900
C63         C  0.35577883  0.44383638  0.83254511    -0.06800
C64         C  0.44176423  0.63103925  0.89656252    -0.06300
N65         N  0.60447976  0.53630579  0.84470218    -0.25800
N66         N  0.35663155  0.52714151  0.89612908    -0.46600
H67         H  0.39567814  0.64435084  0.83144696     0.07000
C68         C  0.55355270  0.35972833  0.83185369    -0.06700
Cl69       Cl  0.49674401  0.49830512  0.86332298    -0.49700
C70         C  0.50805900  0.33553727  0.90208038     0.42800
H71         H  0.64628834  0.59900147  0.83138032     0.07000
N72         N  0.46392580  0.35166433  0.83237523    -0.46400
C73         C  0.49216418  0.65444481  0.17850117     0.42700
N74         N  0.51829385  0.60523769  0.15757294     0.01500
C75         C  0.36859586  0.44890940  0.10243987    -0.06300
H76         H  0.34426251  0.39921935  0.16652357     0.07000
C77         C  0.54807277  0.35291082  0.16736001    -0.06700
Co78       Co  0.42730566  0.56095451  0.13714433     0.74200
N79         N  0.38844598  0.46139597  0.15375176    -0.25900
Co80       Co  0.43557009  0.42350072  0.13530538     0.74100
C81         C  0.49999894  0.32693078  0.17412373     0.42800
N82         N  0.61152092  0.47580117  0.15687297     0.01200
N83         N  0.47819285  0.38268217  0.15433230     0.01300
N84         N  0.36281499  0.53825325  0.10433648    -0.46700
H85         H  0.40378058  0.63921531  0.17190265     0.07000
N86         N  0.38630942  0.51368716  0.15466081     0.01500
N87         N  0.48341547  0.38753585  0.11668900     0.01300
C88         C  0.51160075  0.34376167  0.09477318     0.42900
N89         N  0.60842274  0.52810203  0.15696771    -0.25300
C90         C  0.45079061  0.63809222  0.10697243    -0.06200
N91         N  0.53563960  0.63623040  0.17017393    -0.46400
N92         N  0.46726166  0.35906296  0.10329786    -0.46600
C93         C  0.49850104  0.66082118  0.09918507     0.42700
N94         N  0.39138944  0.51834518  0.11711869     0.01500
N95         N  0.60883225  0.53153056  0.11960207    -0.25300
N96         N  0.46580468  0.60237269  0.15692080    -0.25800
N97         N  0.61276201  0.47934527  0.11930831     0.01200
H98         H  0.63982725  0.59326908  0.10314836     0.07100
H99         H  0.59923045  0.35965969  0.10209858     0.07100
N100        N  0.39514813  0.46614883  0.11635468    -0.25900
N101        N  0.53064982  0.38631640  0.15516359    -0.25500
N102        N  0.52141485  0.60995776  0.11993420     0.01500
C103        C  0.32817993  0.48716520  0.17298024     0.42900
C104        C  0.64311257  0.54742299  0.16848502    -0.06700
N105        N  0.53571492  0.39105282  0.11764430    -0.25500
H106        H  0.58945172  0.34549773  0.17029345     0.07100
N107        N  0.35068002  0.53069247  0.16591847    -0.46700
H108        H  0.65165881  0.58906269  0.17055220     0.07100
C109        C  0.65718731  0.50524663  0.09727320     0.42800
C110        C  0.44566597  0.63231949  0.16961798    -0.06200
Co111      Co  0.56485580  0.56952527  0.13859017     0.73800
N112        N  0.64825678  0.45790239  0.16766137    -0.46400
C113        C  0.34726379  0.49687162  0.09442251     0.43000
N114        N  0.54081848  0.64190703  0.10791075    -0.46400
Co115      Co  0.57345315  0.43236910  0.13740477     0.73900
C116        C  0.55708306  0.36450503  0.10439861    -0.06800
C117        C  0.35305416  0.44098328  0.16490243    -0.06300
N118        N  0.46902311  0.60694174  0.11958995    -0.25800
N119        N  0.45846417  0.34740766  0.16529907    -0.46600
H120        H  0.36379166  0.40780588  0.09870936     0.07000
C121        C  0.63584370  0.55158165  0.10620018    -0.06700
Cl122      Cl  0.50028554  0.49653928  0.13724419    -0.49700
C123        C  0.66970436  0.50088057  0.17555533     0.42800
H124        H  0.40937411  0.64406811  0.10373315     0.07000
N125        N  0.64142999  0.46201602  0.10619055    -0.46400
C126        C  0.00829016  0.83246359  0.67357238     0.42700
N127        N  0.98320757  0.88855907  0.65444513     0.01500
C128        C  0.14025841  0.05825157  0.60620788    -0.06300
H129        H  0.14803524  0.09332441  0.67280035     0.07000
C130        C  0.94890611  0.14282265  0.66839674    -0.06700
Co131      Co  0.07596324  0.93912263  0.63681876     0.74200
N132        N  0.10983453  0.03464566  0.65667140    -0.25900
Co133      Co  0.06665555  0.07588015  0.63792753     0.74100
C134        C  0.99593758  0.16825552  0.67602357     0.42800
N135        N  0.88971367  0.01888530  0.65560798     0.01200
N136        N  0.02077736  0.11284766  0.65663238     0.01300
N137        N  0.14709256  0.96865018  0.60646572    -0.46700
H138        H  0.09681567  0.85204714  0.66886835     0.07000
N139        N  0.11260517  0.98238805  0.65616901     0.01500
N140        N  0.02214877  0.11452224  0.61911116     0.01300
C141        C  0.99840261  0.16214505  0.59758033     0.42900
N142        N  0.89288833  0.96658739  0.65484111    -0.25300
C143        C  0.05826262  0.87146087  0.60406154    -0.06200
N144        N  0.96529538  0.85241408  0.66539393    -0.46400
N145        N  0.04094203  0.14480335  0.60654660    -0.46600
C146        C  0.01236541  0.85002145  0.59488888     0.42700
N147        N  0.11520746  0.98581903  0.61880665     0.01500
N148        N  0.89566280  0.97031606  0.61749921    -0.25300
N149        N  0.03557843  0.89279796  0.65470111    -0.25800
N150        N  0.89176052  0.02245979  0.61818760     0.01200
H151        H  0.86210868  0.91135419  0.60045563     0.07100
H152        H  0.90945330  0.14489401  0.60264341     0.07100
N153        N  0.11101655  0.03794093  0.61906821    -0.25900
N154        N  0.96834027  0.10954900  0.65646543    -0.25500
N155        N  0.98514269  0.89368055  0.61684973     0.01500
C156        C  0.16364294  0.00395622  0.67719140     0.42900
C157        C  0.85884201  0.94567404  0.66631422    -0.06700
N158        N  0.96970799  0.11103526  0.61902017    -0.25500
H159        H  0.90717030  0.15123138  0.67039055     0.07100
N160        N  0.14449626  0.96266311  0.66802488    -0.46700
H161        H  0.85137577  0.90372383  0.66805653     0.07100
C162        C  0.84480054  0.00031186  0.59634240     0.42800
C163        C  0.05504402  0.85932685  0.66650536    -0.06200
Co164      Co  0.93849408  0.92881182  0.63594776     0.73800
N165        N  0.85412568  0.03528226  0.66701125    -0.46400
C166        C  0.16402633  0.01213331  0.59794747     0.43000
N167        N  0.96829800  0.86529534  0.60353527    -0.46400
Co168      Co  0.92901570  0.06613898  0.63742764     0.73900
C169        C  0.95099809  0.14003867  0.60590428    -0.06800
C170        C  0.14065688  0.05211421  0.66965476    -0.06300
N171        N  0.03748633  0.89774793  0.61739810    -0.25800
N172        N  0.03872753  0.14771882  0.66796128    -0.46600
H173        H  0.14556317  0.09998062  0.60339684     0.07000
C174        C  0.86730619  0.95253731  0.60404907    -0.06700
Cl175      Cl  0.00245572  0.00249451  0.63712912    -0.49700
C176        C  0.83291411  0.99138786  0.67435880     0.42800
H177        H  0.10025569  0.86809563  0.60122580     0.07000
N178        N  0.86147981  0.04198276  0.60583293    -0.46400
C179        C  0.17066533  0.99724538  0.32506369     0.42700
N180        N  0.11551178  0.02312680  0.34452954     0.01500
C181        C  0.94897969  0.86733771  0.39496154    -0.06300
H182        H  0.90889156  0.85487489  0.33030597     0.07000
C183        C  0.85923722  0.05817521  0.33392256    -0.06700
Co184      Co  0.06722391  0.93134459  0.36358324     0.74200
N185        N  0.96942387  0.89668218  0.34470821    -0.25900
Co186      Co  0.92933094  0.94037383  0.36353070     0.74100
C187        C  0.83411002  0.01161457  0.32588047     0.42800
N188        N  0.98364405  0.11630045  0.34543325     0.01200
N189        N  0.89012277  0.98605803  0.34511581     0.01300
N190        N  0.03888085  0.86149981  0.39472152    -0.46700
H191        H  0.15277772  0.90914995  0.33104362     0.07000
N192        N  0.02189212  0.89346253  0.34484776     0.01500
N193        N  0.89193206  0.98463187  0.38268891     0.01300
C194        C  0.84668938  0.00775802  0.40482602     0.42900
N195        N  0.03611842  0.11289557  0.34492036    -0.25300
C196        C  0.13917208  0.95223976  0.39566005    -0.06200
N197        N  0.15078346  0.04046668  0.33312857    -0.46400
N198        N  0.86190830  0.96565893  0.39529800    -0.46600
C199        C  0.16223662  0.99921526  0.40392968     0.42700
N200        N  0.02143257  0.89295338  0.38230032     0.01500
N201        N  0.03870760  0.11162340  0.38231743    -0.25300
N202        N  0.11197716  0.97085806  0.34483618    -0.25800
N203        N  0.98636285  0.11491058  0.38296701     0.01200
H204        H  0.10167600  0.14439795  0.39778039     0.07100
H205        H  0.86548997  0.09634559  0.40043379     0.07100
N206        N  0.96906002  0.89661227  0.38211437    -0.25900
N207        N  0.89297396  0.03836940  0.34566983    -0.25500
N208        N  0.11583804  0.02338732  0.38211483     0.01500
C209        C  0.99782594  0.83809430  0.32533355     0.42900
C210        C  0.05439428  0.14657081  0.33285613    -0.06700
N211        N  0.89679927  0.03677518  0.38322684    -0.25500
H212        H  0.85206057  0.09993623  0.33183495     0.07100
N213        N  0.04030752  0.85865822  0.33362593    -0.46700
H214        H  0.09589300  0.15510560  0.33029063     0.07100
C215        C  0.01379262  0.16252039  0.40419023     0.42800
C216        C  0.14499633  0.95091188  0.33292213    -0.06200
Co217      Co  0.07735340  0.06841574  0.36333705     0.73800
N218        N  0.96471809  0.15174240  0.33451782    -0.46400
C219        C  0.99534674  0.84447684  0.40338920     0.43000
N220        N  0.14639026  0.04173026  0.39470453    -0.46400
Co221      Co  0.93929650  0.07743702  0.36431881     0.73900
C222        C  0.86971273  0.05507495  0.39686181    -0.06800
C223        C  0.95051725  0.86345216  0.33262041    -0.06300
N224        N  0.11110343  0.97122454  0.38236303    -0.25800
N225        N  0.85535090  0.96852281  0.33358239    -0.46600
H226        H  0.90709005  0.86164358  0.39763724     0.07000
C227        C  0.05960892  0.14021823  0.39519562    -0.06700
Cl228      Cl  0.00329245  0.00441152  0.36358726    -0.49700
C229        C  0.00677516  0.17247273  0.32601258     0.42800
H230        H  0.14370270  0.91070382  0.39877855     0.07000
N231        N  0.96973225  0.14507053  0.39586573    -0.46400
C232        C  0.00228579  0.55374277  0.50963471     0.02500
C233        C  0.99855431  0.55312280  0.49154171     0.02400
C234        C  0.99715716  0.50446141  0.48285135    -0.18100
C235        C  0.99954148  0.45599035  0.49173752     0.02500
C236        C  0.00406596  0.45656253  0.50993114     0.02400
C237        C  0.00503509  0.50560578  0.51859417    -0.18100
H238        H  0.00751521  0.50638811  0.53252775     0.04500
H239        H  0.99502942  0.50443513  0.46890960     0.04500
C240        C  0.55193303  0.01290530  0.50955132     0.02500
C241        C  0.55114831  0.01244668  0.49141083     0.02400
C242        C  0.50213727  0.01167611  0.48279229    -0.18100
C243        C  0.45382067  0.01121236  0.49189235     0.02500
C244        C  0.45486850  0.01405901  0.51001300     0.02400
C245        C  0.50378264  0.01460386  0.51861581    -0.18100
H246        H  0.50435941  0.01558257  0.53257561     0.04500
H247        H  0.50161513  0.01060004  0.46883859     0.04500
C248        C  0.00223240  0.50425690  0.25098329    -0.02300
C249        C  0.04364895  0.70759936  0.30603584    -0.27400
C250        C  0.00139348  0.69504646  0.29494343     0.02200
C251        C  0.95777010  0.73000176  0.29388951     0.30300
C252        C  0.95700976  0.77647592  0.30381703    -0.19200
C253        C  0.99975787  0.78937761  0.31469328    -0.28600
C254        C  0.04334809  0.75430825  0.31574005     0.44300
C255        C  0.00349572  0.64569197  0.28447039     0.05500
O256        O  0.91590008  0.71941095  0.28307224    -0.57100
H257        H  0.92317735  0.80280520  0.30282051     0.18400
O258        O  0.08565603  0.76466182  0.32640575    -0.63800
H259        H  0.07693520  0.68073058  0.30735447     0.16900
C260        C  0.04831924  0.63365883  0.27436309     0.29100
C261        C  0.04869244  0.58802911  0.26407716    -0.24700
C262        C  0.00404960  0.55365406  0.26311641    -0.24000
C263        C  0.96087934  0.56416866  0.27447750     0.40600
C264        C  0.96062914  0.60995936  0.28471346    -0.26500
O265        O  0.09126789  0.66752820  0.27386899    -0.58400
H266        H  0.08492823  0.57997844  0.25711398     0.16200
O267        O  0.91701027  0.53151566  0.27483993    -0.59800
H268        H  0.92649384  0.61764181  0.29286248     0.14700
H269        H  0.07618623  0.74783181  0.33754622     0.46500
H270        H  0.11998429  0.64916271  0.28032113     0.41900
H271        H  0.91969950  0.51159530  0.28579795     0.45300
H272        H  0.92655843  0.73448004  0.27179680     0.36800
C273        C  0.96143577  0.30421704  0.30740134    -0.27400
C274        C  0.00207898  0.31541948  0.29557122     0.02200
C275        C  0.04416015  0.27905588  0.29362683     0.30300
C276        C  0.04537345  0.23264120  0.30358727    -0.19200
C277        C  0.00439238  0.22119455  0.31534063    -0.28600
C278        C  0.96199422  0.25746581  0.31709938     0.44300
C279        C  0.99979762  0.36480679  0.28519364     0.05500
O280        O  0.08398219  0.28827757  0.28190208    -0.57100
H281        H  0.07809127  0.20522595  0.30194690     0.18400
O282        O  0.92198557  0.24891786  0.32880695    -0.63800
H283        H  0.92921002  0.33210706  0.30923130     0.16900
C284        C  0.95578639  0.37563201  0.27464518     0.29100
C285        C  0.95536354  0.42106673  0.26429558    -0.24700
C286        C  0.99933573  0.45638626  0.26372113    -0.24000
C287        C  0.04134489  0.44737158  0.27567681     0.40600
C288        C  0.04148708  0.40177498  0.28602157    -0.26500
O289        O  0.91374227  0.34074232  0.27380898    -0.58400
H290        H  0.91980355  0.42800736  0.25687327     0.16200
O291        O  0.08316507  0.48243952  0.27704228    -0.59800
H292        H  0.07468965  0.39502110  0.29463371     0.14700
H293        H  0.89253707  0.23250495  0.32211812     0.46500
H294        H  0.88502868  0.35729026  0.28071185     0.41900
H295        H  0.11463267  0.46380004  0.27229775     0.45300
H296        H  0.07076719  0.27292221  0.27094125     0.36800
C297        C  0.05427031  0.26955671  0.43633311    -0.27400
C298        C  0.00763692  0.27451881  0.44613677     0.02200
C299        C  0.96409843  0.24077628  0.44254003     0.30300
C300        C  0.96702399  0.20422390  0.42898799    -0.19200
C301        C  0.01335946  0.19984675  0.41896447    -0.28600
C302        C  0.05760468  0.23243695  0.42295279     0.44300
C303        C  0.00355003  0.31771812  0.45910166     0.05500
O304        O  0.91819101  0.24365847  0.45205700    -0.57100
H305        H  0.93276341  0.17926133  0.42628689     0.18400
O306        O  0.10310516  0.23102119  0.41321650    -0.63800
H307        H  0.08777420  0.29585026  0.43866837     0.16900
C308        C  0.04308842  0.32559937  0.47175546     0.29100
C309        C  0.04074410  0.36979829  0.48270630    -0.24700
C310        C  0.99890103  0.40632544  0.48138310    -0.24000
C311        C  0.95838982  0.39728569  0.46914596     0.40600
C312        C  0.96112359  0.35361728  0.45808966    -0.26500
O313        O  0.08471634  0.29090481  0.47329832    -0.58400
H314        H  0.07243478  0.37631911  0.49193299     0.16200
O315        O  0.91655344  0.43176918  0.46759429    -0.59800
H316        H  0.93068038  0.34866262  0.44833716     0.14700
H317        H  0.12944681  0.21157575  0.42032218     0.46500
H318        H  0.07209518  0.26333853  0.48146322     0.41900
H319        H  0.88970586  0.41931142  0.47606687     0.45300
H320        H  0.92495373  0.22177594  0.46240841     0.36800
C321        C  0.94941201  0.65945630  0.46117268    -0.27400
C322        C  0.99648361  0.68835800  0.45800720     0.02200
C323        C  0.04284364  0.67562705  0.46732220     0.30300
C324        C  0.04284335  0.63175925  0.47835264    -0.19200
C325        C  0.99626218  0.60228349  0.48119137    -0.28600
C326        C  0.94899439  0.61704346  0.47280717     0.44300
C327        C  0.99735737  0.72961534  0.44433921     0.05500
O328        O  0.08778363  0.70668348  0.46599502    -0.57100
H329        H  0.07985056  0.61988179  0.48427611     0.18400
O330        O  0.90286751  0.58867662  0.47528385    -0.63800
H331        H  0.91327555  0.66873931  0.45421119     0.16900
C332        C  0.03678571  0.72943396  0.43137276     0.29100
C333        C  0.03649991  0.76809719  0.41847718    -0.24700
C334        C  0.99594567  0.80604465  0.41773665    -0.24000
C335        C  0.95594707  0.80579679  0.43049068     0.40600
C336        C  0.95700983  0.76795503  0.44367368    -0.26500
O337        O  0.07474071  0.69051052  0.43078479    -0.58400
H338        H  0.06709022  0.76714898  0.40864207     0.16200
O339        O  0.91580763  0.84250028  0.43031849    -0.59800
H340        H  0.92618245  0.76859313  0.45343205     0.14700
H341        H  0.88846469  0.60141672  0.48645072     0.46500
H342        H  0.05790627  0.66065321  0.42443096     0.41900
H343        H  0.93056122  0.87409319  0.43632506     0.45300
H344        H  0.11650255  0.68287932  0.46185616     0.36800
C345        C  0.35171214  0.96339477  0.45963913    -0.27400
C346        C  0.31571212  0.00578413  0.45942066     0.02200
C347        C  0.32204969  0.04754641  0.47134551     0.30300
C348        C  0.36593251  0.04801066  0.48253577    -0.19200
C349        C  0.40358073  0.00704405  0.48197992    -0.28600
C350        C  0.39516548  0.96369064  0.47085288     0.44300
C351        C  0.27345758  0.00656554  0.44610044     0.05500
O352        O  0.28512843  0.08744768  0.47227753    -0.57100
H353        H  0.37151583  0.08123701  0.49122174     0.18400
O354        O  0.43022672  0.92211354  0.47050872    -0.63800
H355        H  0.34701660  0.93068107  0.45069192     0.16900
C356        C  0.27102557  0.04775621  0.43388149     0.29100
C357        C  0.23367908  0.04543580  0.42051470    -0.24700
C358        C  0.19903410  0.00177422  0.41883030    -0.24000
C359        C  0.20084034  0.96107692  0.43128379     0.40600
C360        C  0.23806606  0.96353844  0.44467789    -0.26500
O361        O  0.30627436  0.08948009  0.43450947    -0.58400
H362        H  0.23306073  0.07714179  0.41110741     0.16200
O363        O  0.16639142  0.91876123  0.43060403    -0.59800
H364        H  0.23954408  0.93152621  0.45396808     0.14700
H365        H  0.41648998  0.89653094  0.47915019     0.46500
H366        H  0.33697748  0.07832409  0.42735144     0.41900
H367        H  0.13366460  0.93097521  0.43652807     0.45300
H368        H  0.30356552  0.11973523  0.46807523     0.36800
C369        C  0.73229148  0.96689249  0.43386142    -0.27400
C370        C  0.73365019  0.00707697  0.44637031     0.02200
C371        C  0.77471757  0.04532560  0.44584372     0.30300
C372        C  0.81200800  0.04451537  0.43240247    -0.19200
C373        C  0.80931012  0.00554285  0.41950065    -0.28600
C374        C  0.76965420  0.96588633  0.42050674     0.44300
C375        C  0.68988660  0.01022426  0.45913895     0.05500
O376        O  0.77939956  0.08259611  0.45866830    -0.57100
H377        H  0.84305777  0.07451148  0.43206946     0.18400
O378        O  0.76574939  0.92708251  0.40817092    -0.63800
H379        H  0.70090970  0.93721920  0.43409253     0.16900
C380        C  0.65765416  0.05580076  0.46015215     0.29100
C381        C  0.61345211  0.05637833  0.47107948    -0.24700
C382        C  0.60042899  0.01183850  0.48103132    -0.24000
C383        C  0.63233242  0.96620897  0.48005134     0.40600
C384        C  0.67689550  0.96567592  0.46920444    -0.26500
O385        O  0.66767524  0.09918737  0.44998705    -0.58400
H386        H  0.58855647  0.09137229  0.47156114     0.16200
O387        O  0.61937174  0.92154753  0.48925172    -0.59800
H388        H  0.70074392  0.93003957  0.46835329     0.14700
H389        H  0.74009699  0.94097366  0.39959067     0.46500
H390        H  0.64877506  0.09192004  0.43901474     0.41900
H391        H  0.59372271  0.90176534  0.48189200     0.45300
H392        H  0.77300944  0.11735461  0.45307657     0.36800
C393        C  0.28312076  0.97670558  0.57064022    -0.27400
C394        C  0.27886450  0.01365133  0.55723373     0.02200
C395        C  0.23593703  0.04935844  0.55704666     0.30300
C396        C  0.19854126  0.04845558  0.57041642    -0.19200
C397        C  0.20318884  0.01184896  0.58390398    -0.28600
C398        C  0.24569456  0.97564123  0.58393325     0.44300
C399        C  0.32074809  0.01544533  0.54391490     0.05500
O400        O  0.22929269  0.08372482  0.54352781    -0.57100
H401        H  0.16552593  0.07596545  0.57013418     0.18400
O402        O  0.25184787  0.94004669  0.59712318    -0.63800
H403        H  0.31628235  0.94935178  0.57098655     0.16900
C404        C  0.35188854  0.06152013  0.54156214     0.29100
C405        C  0.39409660  0.06114664  0.52986494    -0.24700
C406        C  0.40613507  0.01507974  0.52054964    -0.24000
C407        C  0.37523840  0.96898663  0.52289135     0.40600
C408        C  0.33259246  0.96945383  0.53446466    -0.26500
O409        O  0.34279367  0.10636719  0.55113158    -0.58400
H410        H  0.41857443  0.09640852  0.52840681     0.16200
O411        O  0.38755677  0.92293443  0.51438031    -0.59800
H412        H  0.30943160  0.93353617  0.53637955     0.14700
H413        H  0.27552052  0.95810088  0.60553846     0.46500
H414        H  0.36096398  0.10012367  0.56228022     0.41900
H415        H  0.41503772  0.90551387  0.52157961     0.45300
H416        H  0.23539143  0.11969378  0.54834259     0.36800
C417        C  0.68392102  0.04886366  0.53027998    -0.27400
C418        C  0.69041723  0.00606026  0.54164804     0.02200
C419        C  0.65232949  0.96488125  0.54185149     0.30300
C420        C  0.60859174  0.96688839  0.53080310    -0.19200
C421        C  0.60173775  0.00983272  0.51958608    -0.28600
C422        C  0.63963408  0.05115877  0.51937851     0.44300
C423        C  0.73410358  0.00677739  0.55437798     0.05500
O424        O  0.65533960  0.92480069  0.55376294    -0.57100
H425        H  0.57893257  0.93552893  0.53135256     0.18400
O426        O  0.63263524  0.09484020  0.50912872    -0.63800
H427        H  0.71250000  0.08122516  0.53021870     0.16900
C428        C  0.76882788  0.96340495  0.55610739     0.29100
C429        C  0.80493474  0.96185695  0.56977249    -0.24700
C430        C  0.80800216  0.00389126  0.58160299    -0.24000
C431        C  0.77510073  0.04859074  0.57931443     0.40600
C432        C  0.73854960  0.04973862  0.56577122    -0.26500
O433        O  0.76730308  0.92204379  0.54462646    -0.58400
H434        H  0.83063827  0.92769471  0.57106082     0.16200
O435        O  0.77707113  0.09070393  0.59050466    -0.59800
H436        H  0.71215040  0.08343476  0.56456012     0.14700
H437        H  0.60903045  0.11877237  0.51581052     0.46500
H438        H  0.79022754  0.93344036  0.53489130     0.41900
H439        H  0.75090639  0.08202969  0.59966907     0.45300
H440        H  0.66342281  0.89227679  0.54709190     0.36800
C441        C  0.04922695  0.24711529  0.56053319    -0.27400
C442        C  0.00470205  0.27896560  0.55711257     0.02200
C443        C  0.95785555  0.27106822  0.56681398     0.30300
C444        C  0.95594330  0.23191209  0.57954683    -0.19200
C445        C  0.00074458  0.20084707  0.58324405    -0.28600
C446        C  0.04761215  0.20850566  0.57351040     0.44300
C447        C  0.00764522  0.32151207  0.54387551     0.05500
O448        O  0.91410123  0.30254056  0.56433826    -0.57100
H449        H  0.91967690  0.22724995  0.58694263     0.18400
O450        O  0.09216550  0.17871165  0.57659158    -0.63800
H451        H  0.08546157  0.25225531  0.55313462     0.16900
C452        C  0.04870261  0.35986974  0.54419580     0.29100
C453        C  0.04834487  0.40197414  0.53246722    -0.24700
C454        C  0.00678839  0.40751668  0.52051360    -0.24000
C455        C  0.96598281  0.36898156  0.52008833     0.40600
C456        C  0.96721986  0.32592220  0.53145976    -0.26500
O457        O  0.08814805  0.35791092  0.55638058    -0.58400
H458        H  0.07976574  0.43155411  0.53308961     0.16200
O459        O  0.92350538  0.37418584  0.50915387    -0.59800
H460        H  0.93544462  0.29672368  0.53094787     0.14700
H461        H  0.08886058  0.14751227  0.56885640     0.46500
H462        H  0.07360666  0.37699880  0.56650840     0.41900
H463        H  0.89704345  0.39546691  0.51560218     0.45300
H464        H  0.92122986  0.33521776  0.57112529     0.36800
C465        C  0.05194488  0.74068701  0.56408230    -0.27400
C466        C  0.00860342  0.73990766  0.55271501     0.02200
C467        C  0.96780191  0.77762488  0.55472810     0.30300
C468        C  0.96965924  0.81370222  0.56844970    -0.19200
C469        C  0.01254026  0.81354546  0.58003555    -0.28600
C470        C  0.05427342  0.77707501  0.57759719     0.44300
C471        C  0.00467152  0.69635460  0.53995560     0.05500
O472        O  0.92569532  0.77907487  0.54351001    -0.57100
H473        H  0.93751636  0.84183712  0.57005157     0.18400
O474        O  0.09638179  0.77471376  0.58878962    -0.63800
H475        H  0.08319971  0.71138315  0.56294310     0.16900
C476        C  0.04844270  0.68308482  0.52947036     0.29100
C477        C  0.04746349  0.63633165  0.51980664    -0.24700
C478        C  0.00205119  0.60380744  0.51958133    -0.24000
C479        C  0.95769510  0.61769539  0.52964993     0.40600
C480        C  0.95929316  0.66353595  0.53982211    -0.26500
O481        O  0.09305353  0.71468820  0.52900852    -0.58400
H482        H  0.08288878  0.62477762  0.51287794     0.16200
O483        O  0.91369934  0.58529977  0.53026421    -0.59800
H484        H  0.92582536  0.67230094  0.54813935     0.14700
H485        H  0.08509983  0.74945386  0.59789588     0.46500
H486        H  0.08473474  0.74303725  0.52058875     0.41900
H487        H  0.88907741  0.59956487  0.52138851     0.45300
H488        H  0.93815555  0.80117244  0.53373367     0.36800
C489        C  0.19232945  0.45685161  0.19214115    -0.27400
C490        C  0.18784640  0.49718038  0.20453036     0.02200
C491        C  0.23001210  0.53363660  0.20662091     0.30300
C492        C  0.27563809  0.52958175  0.19630756    -0.19200
C493        C  0.28027316  0.48901862  0.18400079    -0.28600
C494        C  0.23795594  0.45266027  0.18188464     0.44300
C495        C  0.14030421  0.49871385  0.21583239     0.05500
O496        O  0.22812380  0.57147078  0.21931924    -0.57100
H497        H  0.30789328  0.55777347  0.19811537     0.18400
O498        O  0.24012935  0.41360782  0.16960297    -0.63800
H499        H  0.16011912  0.42858880  0.19037158     0.16900
C500        C  0.10697416  0.54321351  0.21659789     0.29100
C501        C  0.06319005  0.54342933  0.22776275    -0.24700
C502        C  0.05174853  0.50013365  0.23880735    -0.24000
C503        C  0.08285437  0.45329395  0.23646651     0.40600
C504        C  0.12698824  0.45377381  0.22543977    -0.26500
O505        O  0.11627258  0.58640209  0.20627802    -0.58400
H506        H  0.03827829  0.57834433  0.22802620     0.16200
O507        O  0.06794002  0.40526944  0.24332374    -0.59800
H508        H  0.15063867  0.41809446  0.22417152     0.14700
H509        H  0.22312798  0.42910770  0.15926905     0.46500
H510        H  0.09586939  0.57926449  0.19556542     0.41900
H511        H  0.09865206  0.39287936  0.25029198     0.45300
H512        H  0.22179632  0.60552759  0.21326913     0.36800
C513        C  0.80755114  0.53791869  0.19205815    -0.27400
C514        C  0.81584021  0.49920234  0.20472694     0.02200
C515        C  0.77624045  0.46025786  0.20749994     0.30300
C516        C  0.72903034  0.46087876  0.19778970    -0.19200
C517        C  0.72035484  0.50025345  0.18535943    -0.28600
C518        C  0.76062528  0.53844431  0.18233725     0.44300
C519        C  0.86466519  0.50167583  0.21553265     0.05500
O520        O  0.78200389  0.42349285  0.22037301    -0.57100
H521        H  0.69855739  0.43126505  0.20027949     0.18400
O522        O  0.75510870  0.57601869  0.16971780    -0.63800
H523        H  0.83777896  0.56785833  0.18965782     0.16900
C524        C  0.90035274  0.45905780  0.21645618     0.29100
C525        C  0.94459884  0.46196387  0.22743313    -0.24700
C526        C  0.95394941  0.50639528  0.23822186    -0.24000
C527        C  0.92114247  0.55172145  0.23537798     0.40600
C528        C  0.87641413  0.54818043  0.22465818    -0.26500
O529        O  0.89344604  0.41529970  0.20614429    -0.58400
H530        H  0.97108042  0.42821612  0.22794210     0.16200
O531        O  0.93288201  0.60056267  0.24221585    -0.59800
H532        H  0.85088965  0.58250496  0.22332819     0.14700
H533        H  0.76782834  0.55866657  0.15901064     0.46500
H534        H  0.88626018  0.38533261  0.21408651     0.41900
H535        H  0.95201338  0.62004433  0.23300296     0.45300
H536        H  0.78590079  0.38882518  0.21444602     0.36800
C537        C  0.56075755  0.15258262  0.04085415    -0.27400
C538        C  0.51832125  0.18853652  0.03990800     0.02200
C539        C  0.47846008  0.18065390  0.02740818     0.30300
C540        C  0.47964651  0.13549696  0.01685439    -0.19200
C541        C  0.52070255  0.09814759  0.01837889    -0.28600
C542        C  0.56224328  0.10781631  0.03018796     0.44300
C543        C  0.51443925  0.23171375  0.05286101     0.05500
O544        O  0.43862717  0.21723879  0.02534617    -0.57100
H545        H  0.44719852  0.12869658  0.00794972     0.18400
O546        O  0.60352522  0.07272182  0.03183419    -0.63800
H547        H  0.59189122  0.15823916  0.05033970     0.16900
C548        C  0.46997820  0.23516379  0.06388044     0.29100
C549        C  0.46886668  0.27318646  0.07701678    -0.24700
C550        C  0.51221236  0.30755421  0.07972087    -0.24000
C551        C  0.55607962  0.30518581  0.06836176     0.40600
C552        C  0.55708793  0.26720395  0.05516907    -0.26500
O553        O  0.42831375  0.20005832  0.06240366    -0.58400
H554        H  0.43477075  0.27428301  0.08555747     0.16200
O555        O  0.59826303  0.33957401  0.06999156    -0.59800
H556        H  0.59149130  0.26515201  0.04677509     0.14700
H557        H  0.62874479  0.08199731  0.02245816     0.46500
H558        H  0.43840748  0.16911503  0.06955782     0.41900
H559        H  0.58785913  0.37170918  0.06344394     0.45300
H560        H  0.40514976  0.19869461  0.02861961     0.36800
C561        C  0.46491562  0.82805586  0.03428968    -0.27400
C562        C  0.50855709  0.81809639  0.04512392     0.02200
C563        C  0.55481321  0.84968980  0.04346866     0.30300
C564        C  0.55641572  0.89096069  0.03147413    -0.19200
C565        C  0.51223503  0.90187333  0.02106939    -0.28600
C566        C  0.46621554  0.87006716  0.02252197     0.44300
C567        C  0.50479572  0.77644824  0.05860509     0.05500
O568        O  0.59804766  0.84184039  0.05392426    -0.57100
H569        H  0.59182885  0.91557133  0.03059482     0.18400
O570        O  0.42163126  0.88095010  0.01299836    -0.63800
H571        H  0.42923764  0.80389890  0.03520807     0.16900
C572        C  0.46132409  0.77475923  0.07009647     0.29100
C573        C  0.45957070  0.73644941  0.08311434    -0.24700
C574        C  0.50110312  0.69996140  0.08511530    -0.24000
C575        C  0.54456853  0.70157091  0.07368181     0.40600
C576        C  0.54589441  0.73921130  0.06045146    -0.26500
O577        O  0.42198379  0.81231717  0.06934486    -0.58400
H578        H  0.42624789  0.73633641  0.09197421     0.16200
O579        O  0.58587217  0.66648505  0.07527180    -0.59800
H580        H  0.57930854  0.73941860  0.05162764     0.14700
H581        H  0.40212849  0.90827204  0.01967572     0.46500
H582        H  0.39004684  0.79337362  0.06492650     0.41900
H583        H  0.57568427  0.63549426  0.06809219     0.45300
H584        H  0.59012293  0.86179166  0.06462781     0.36800
C585        C  0.55767781  0.15863259  0.96305060    -0.27400
C586        C  0.50962062  0.17575974  0.95561254     0.02200
C587        C  0.46147167  0.15137019  0.96088776     0.30300
C588        C  0.46229037  0.10927876  0.97258052    -0.19200
C589        C  0.51028379  0.09235991  0.97984002    -0.28600
C590        C  0.55804114  0.11797470  0.97532609     0.44300
C591        C  0.51010518  0.21718931  0.94190664     0.05500
O592        O  0.41332634  0.16788302  0.95457575    -0.57100
H593        H  0.42530236  0.08961920  0.97600905     0.18400
O594        O  0.60553051  0.10153468  0.98214543    -0.63800
H595        H  0.59530943  0.17561243  0.95900066     0.16900
C596        C  0.54112757  0.26390515  0.94341597     0.29100
C597        C  0.54063363  0.30188104  0.93022451    -0.24700
C598        C  0.50855211  0.29475393  0.91564619    -0.24000
C599        C  0.47770326  0.24830285  0.91407514     0.40600
C600        C  0.47932324  0.20967614  0.92696611    -0.26500
O601        O  0.56983028  0.27408860  0.95808586    -0.58400
H602        H  0.56435491  0.33768392  0.93160606     0.16200
O603        O  0.44650453  0.23979949  0.89984201    -0.59800
H604        H  0.45657670  0.17345998  0.92517366     0.14700
H605        H  0.61217023  0.12551688  0.99204385     0.46500
H606        H  0.60781909  0.27196784  0.95460140     0.41900
H607        H  0.46962270  0.22067845  0.89157035     0.45300
H608        H  0.40460489  0.20036384  0.96121014     0.36800
C609        C  0.54444469  0.82113094  0.96901156    -0.27400
C610        C  0.49778351  0.81037636  0.95959884     0.02200
C611        C  0.45251785  0.84226174  0.96238379     0.30300
C612        C  0.45518403  0.88526470  0.97373674    -0.19200
C613        C  0.50246539  0.89726277  0.98250636    -0.28600
C614        C  0.54706399  0.86440524  0.98033662     0.44300
C615        C  0.49746416  0.76829798  0.94614858     0.05500
O616        O  0.40615176  0.83328384  0.95350075    -0.57100
H617        H  0.42072463  0.91057962  0.97526094     0.18400
O618        O  0.59438587  0.87658956  0.98825182    -0.63800
H619        H  0.57942858  0.79673996  0.96725553     0.16900
C620        C  0.53739051  0.76642389  0.93339125     0.29100
C621        C  0.53422912  0.72889474  0.92012254    -0.24700
C622        C  0.49137258  0.69304859  0.91914853    -0.24000
C623        C  0.45213222  0.69411866  0.93210391     0.40600
C624        C  0.45552433  0.73128793  0.94547903    -0.26500
O625        O  0.57784568  0.80322872  0.93315582    -0.58400
H626        H  0.56478653  0.72892722  0.91027219     0.16200
O627        O  0.41058584  0.65873168  0.93198496    -0.59800
H628        H  0.42502830  0.73130267  0.95534634     0.14700
H629        H  0.59755650  0.85088955  0.99783372     0.46500
H630        H  0.61031238  0.78351763  0.93654257     0.41900
H631        H  0.42085050  0.63088452  0.94033433     0.45300
H632        H  0.40962340  0.85435586  0.94276385     0.36800
C633        C  0.96407290  0.40116807  0.71421149    -0.27400
C634        C  0.00141942  0.36092340  0.71698991     0.02200
C635        C  0.04140261  0.36911931  0.72937380     0.30300
C636        C  0.04268733  0.41592862  0.73901540    -0.19200
C637        C  0.00178211  0.45424875  0.73781545    -0.28600
C638        C  0.96380415  0.44718961  0.72439779     0.44300
C639        C  0.99940469  0.31123659  0.70663408     0.05500
O640        O  0.07934358  0.33122122  0.73237223    -0.57100
H641        H  0.07624876  0.42097020  0.74749768     0.18400
O642        O  0.92610847  0.48515964  0.72114517    -0.63800
H643        H  0.93457893  0.39686141  0.70413610     0.16900
C644        C  0.95195813  0.28151648  0.70492691     0.29100
C645        C  0.95145611  0.23460172  0.69517978    -0.24700
C646        C  0.99785604  0.21643627  0.68701191    -0.24000
C647        C  0.04546814  0.24594593  0.68895873     0.40600
C648        C  0.04569589  0.29304157  0.69847153    -0.26500
O649        O  0.90641714  0.29691415  0.71328123    -0.58400
H650        H  0.91458136  0.21241618  0.69409886     0.16200
O651        O  0.09186877  0.23023756  0.68119937    -0.59800
H652        H  0.08236096  0.31571950  0.69935423     0.14700
H653        H  0.89155732  0.46956234  0.72479121     0.46500
H654        H  0.88271147  0.31092791  0.70416731     0.41900
H655        H  0.11026621  0.20808409  0.68989042     0.45300
H656        H  0.06432858  0.30849643  0.74159765     0.36800
C657        C  0.04661119  0.60792330  0.71647539    -0.27400
C658        C  0.00558663  0.64538128  0.71686196     0.02200
C659        C  0.96083505  0.63556651  0.72724153     0.30300
C660        C  0.95770037  0.58949774  0.73713447    -0.19200
C661        C  0.00024763  0.55286745  0.73792186    -0.28600
C662        C  0.04381810  0.56171215  0.72651780     0.44300
C663        C  0.00777532  0.69308844  0.70567623     0.05500
O664        O  0.91948499  0.67092956  0.72782008    -0.57100
H665        H  0.92080521  0.58306806  0.74393396     0.18400
O666        O  0.08519030  0.52641683  0.72568363    -0.63800
H667        H  0.08070801  0.61411111  0.70815430     0.16900
C668        C  0.05104941  0.72890677  0.70616902     0.29100
C669        C  0.05092512  0.77416142  0.69565088    -0.24700
C670        C  0.00765401  0.78476946  0.68471105    -0.24000
C671        C  0.96473097  0.74853261  0.68416398     0.40600
C672        C  0.96515374  0.70329317  0.69452647    -0.26500
O673        O  0.09322254  0.72047358  0.71702234    -0.58400
H674        H  0.08439390  0.80137925  0.69625991     0.16200
O675        O  0.92235826  0.75633024  0.67335250    -0.59800
H676        H  0.93198900  0.67571303  0.69375564     0.14700
H677        H  0.07960173  0.50632980  0.71485706     0.46500
H678        H  0.08221438  0.73595355  0.72824092     0.41900
H679        H  0.93225252  0.73832615  0.66244744     0.45300
H680        H  0.92959056  0.69709915  0.73680794     0.36800
C681        C  0.22058990  0.45762413  0.79326611    -0.27400
C682        C  0.18475668  0.49932984  0.79614519     0.02200
C683        C  0.19665864  0.53788138  0.80866446     0.30300
C684        C  0.24407271  0.53461444  0.81802161    -0.19200
C685        C  0.28020821  0.49310906  0.81514511    -0.28600
C686        C  0.26825075  0.45448987  0.80258821     0.44300
C687        C  0.13584495  0.50302521  0.78563654     0.05500
O688        O  0.16104265  0.57750921  0.81231642    -0.57100
H689        H  0.25207823  0.56434184  0.82778127     0.18400
O690        O  0.30308000  0.41413172  0.79910444    -0.63800
H691        H  0.21195846  0.42796854  0.78353448     0.16900
C692        C  0.12779064  0.54617740  0.77459206     0.29100
C693        C  0.08305503  0.54743635  0.76391415    -0.24700
C694        C  0.04626020  0.50464939  0.76323233    -0.24000
C695        C  0.05250979  0.46373188  0.77571680     0.40600
C696        C  0.09730615  0.46288657  0.78649270    -0.26500
O697        O  0.16497375  0.58617555  0.77351463    -0.58400
H698        H  0.07825721  0.58268437  0.75623593     0.16200
O699        O  0.01509697  0.42409186  0.77735379    -0.59800
H700        H  0.10219529  0.43039525  0.79547488     0.14700
H701        H  0.32788817  0.42872163  0.79033119     0.46500
H702        H  0.14733372  0.61816604  0.77825269     0.41900
H703        H  0.03355240  0.39045892  0.77453106     0.45300
H704        H  0.17886447  0.61105821  0.80879895     0.32400
C705        C  0.79772141  0.46993826  0.80558050    -0.27400
C706        C  0.80884306  0.51308741  0.79474844     0.02200
C707        C  0.77357853  0.55647461  0.79453197     0.30300
C708        C  0.72763833  0.55565832  0.80486171    -0.19200
C709        C  0.71609042  0.51194502  0.81546731    -0.28600
C710        C  0.75216384  0.46916677  0.81591232     0.44300
C711        C  0.85643676  0.51080197  0.78339331     0.05500
O712        O  0.78208229  0.59831125  0.78355579    -0.57100
H713        H  0.70046128  0.58886405  0.80427720     0.18400
O714        O  0.74363308  0.42635567  0.82646510    -0.63800
H715        H  0.82472413  0.43654248  0.80607440     0.16900
C716        C  0.89586410  0.55045715  0.78371413     0.29100
C717        C  0.94075928  0.54614313  0.77315891    -0.24700
C718        C  0.94784137  0.50292897  0.76168686    -0.24000
C719        C  0.90964950  0.46086632  0.76261222     0.40600
C720        C  0.86440402  0.46596331  0.77306907    -0.26500
O721        O  0.89164136  0.59314930  0.79458129    -0.58400
H722        H  0.97024647  0.57764834  0.77367220     0.16200
O723        O  0.91827577  0.41243426  0.75502282    -0.59800
H724        H  0.83569808  0.43370831  0.77340406     0.14700
H725        H  0.76301113  0.43483796  0.83724962     0.46500
H726        H  0.90682805  0.58103437  0.80567589     0.41900
H727        H  0.88668609  0.40509605  0.74768886     0.45300
H728        H  0.79049311  0.62915704  0.79106137     0.36800
C729        C  0.63838943  0.95855116  0.72989032    -0.27400
C730        C  0.64506810  0.99906432  0.71783433     0.02200
C731        C  0.60743385  0.04012110  0.71722916     0.30300
C732        C  0.56265268  0.03868352  0.72807960    -0.19200
C733        C  0.55293468  0.99570084  0.73943397    -0.28600
C734        C  0.59461249  0.95748881  0.74104541     0.44300
C735        C  0.69250596  0.99808065  0.70638270     0.05500
O736        O  0.61248520  0.08019534  0.70539008    -0.57100
H737        H  0.53362475  0.07017408  0.72698149     0.18400
O738        O  0.59516295  0.91994911  0.75378919    -0.63800
H739        H  0.66849513  0.92806888  0.73106192     0.16900
C740        C  0.73099691  0.03887476  0.70686903     0.29100
C741        C  0.77637427  0.03602353  0.69638777    -0.24700
C742        C  0.78502089  0.99212416  0.68558586    -0.24000
C743        C  0.74658427  0.95100177  0.68522382     0.40600
C744        C  0.70102335  0.95415152  0.69560776    -0.26500
O745        O  0.72527050  0.08114827  0.71783242    -0.58400
H746        H  0.80539967  0.06795271  0.69691005     0.16200
O747        O  0.75229859  0.90803963  0.67454912    -0.59800
H748        H  0.67194433  0.92225050  0.69517308     0.14700
H749        H  0.62042367  0.93345051  0.76258111     0.46500
H750        H  0.73857129  0.06847356  0.72912221     0.41900
H751        H  0.73678152  0.91915487  0.66339894     0.45300
H752        H  0.62161618  0.11241988  0.71216735     0.36800
C753        C  0.39757962  0.98981955  0.71167427    -0.27400
C754        C  0.34948733  0.99328656  0.72064928     0.02200
C755        C  0.35005904  0.99382586  0.73863786     0.30300
C756        C  0.39860120  0.99342043  0.74741843    -0.19200
C757        C  0.44827688  0.99349886  0.73865068    -0.28600
C758        C  0.44649812  0.98853765  0.72034637     0.44300
C759        C  0.29896245  0.99500822  0.71096440     0.05500
O760        O  0.30328088  0.99328473  0.74776074    -0.57100
H761        H  0.39757588  0.99449350  0.76135254     0.18400
O762        O  0.49118365  0.98029039  0.71061034    -0.63800
H763        H  0.39718776  0.98735610  0.69774672     0.16900
C764        C  0.26892004  0.04191254  0.71002353     0.29100
C765        C  0.22397943  0.04411999  0.69936136    -0.24700
C766        C  0.20813810  0.99966780  0.68965391    -0.24000
C767        C  0.23696689  0.95183725  0.69139596     0.40600
C768        C  0.28237594  0.95015606  0.70176426    -0.26500
O769        O  0.28389853  0.08612968  0.71916311    -0.58400
H770        H  0.20208698  0.08094224  0.69850917     0.16200
O771        O  0.22271263  0.90698305  0.68246829    -0.59800
H772        H  0.30516792  0.91379847  0.70248315     0.14700
H773        H  0.49016928  0.94227689  0.70728098     0.46500
H774        H  0.31071094  0.10435713  0.71186112     0.41900
H775        H  0.19788411  0.88755960  0.69019503     0.45300
H776        H  0.29687856  0.03082566  0.75099513     0.36800
C777        C  0.54823518  0.22784409  0.79116184    -0.27400
C778        C  0.50402971  0.19352826  0.79144181     0.02200
C779        C  0.46053429  0.20614355  0.80212731     0.30300
C780        C  0.46195826  0.25205581  0.81238743    -0.19200
C781        C  0.50649857  0.28618580  0.81232329    -0.28600
C782        C  0.54974474  0.27377457  0.80144889     0.44300
C783        C  0.50371417  0.14469934  0.78057370     0.05500
O784        O  0.41763596  0.17235515  0.80328102    -0.57100
H785        H  0.42838311  0.26025918  0.82071940     0.18400
O786        O  0.59291265  0.30710049  0.80028856    -0.63800
H787        H  0.58168489  0.21914150  0.78282635     0.16900
C788        C  0.46436148  0.13650680  0.76803021     0.29100
C789        C  0.46394206  0.08997224  0.75816423    -0.24700
C790        C  0.50137368  0.04862030  0.76079978    -0.24000
C791        C  0.54320784  0.05939871  0.77267419     0.40600
C792        C  0.54386201  0.10664650  0.78237867    -0.26500
O793        O  0.42646864  0.17442266  0.76500524    -0.58400
H794        H  0.43425347  0.08789081  0.74815852     0.16200
O795        O  0.58434725  0.02428287  0.77465837    -0.59800
H796        H  0.57570251  0.11325353  0.79155039     0.14700
H797        H  0.62193919  0.28882822  0.80652498     0.46500
H798        H  0.44266933  0.19878558  0.75645561     0.41900
H799        H  0.58206135  0.01136824  0.78664612     0.45300
H800        H  0.38788878  0.19102222  0.79755391     0.36800
C801        C  0.53063251  0.77382746  0.79500395    -0.27400
C802        C  0.48341308  0.80183998  0.79217356     0.02200
C803        C  0.43562979  0.78297638  0.79937922     0.30300
C804        C  0.43571660  0.73726094  0.80968358    -0.19200
C805        C  0.48337271  0.71004717  0.81313387    -0.28600
C806        C  0.53100430  0.72848726  0.80544793     0.44300
C807        C  0.48472203  0.85101882  0.78179006     0.05500
O808        O  0.38859214  0.80863436  0.79621321    -0.57100
H809        H  0.39848092  0.72398467  0.81525689     0.18400
O810        O  0.57810863  0.70219260  0.80786003    -0.63800
H811        H  0.56754699  0.78769596  0.78930148     0.16900
C812        C  0.48490814  0.90113973  0.78967808     0.29100
C813        C  0.48868691  0.94731156  0.77966902    -0.24700
C814        C  0.49407858  0.94482922  0.76154629    -0.24000
C815        C  0.49000920  0.89359640  0.75378219     0.40600
C816        C  0.48660383  0.84768958  0.76388083    -0.26500
O817        O  0.48289322  0.90533426  0.80726399    -0.58400
H818        H  0.48680396  0.98473947  0.78638320     0.16200
O819        O  0.49273470  0.88774827  0.73626068    -0.59800
H820        H  0.48575703  0.80916558  0.75766245     0.14700
H821        H  0.59666317  0.72188030  0.81718208     0.46500
H822        H  0.44482231  0.91163377  0.81002045     0.41900
H823        H  0.45613987  0.87777719  0.73260221     0.45300
H824        H  0.38235374  0.83115998  0.80648086     0.36800
C825        C  0.17925677  0.53832982  0.02881276    -0.27400
C826        C  0.18687748  0.49752527  0.04088068     0.02200
C827        C  0.14833933  0.45677871  0.04212590     0.30300
C828        C  0.10358756  0.45705349  0.03136405    -0.19200
C829        C  0.09595301  0.49775591  0.01932162    -0.28600
C830        C  0.13403326  0.53890536  0.01820735     0.44300
C831        C  0.23275083  0.49965988  0.05302130     0.05500
O832        O  0.15210191  0.41874200  0.05469897    -0.57100
H833        H  0.07399417  0.42587104  0.03269568     0.18400
O834        O  0.12647840  0.58086043  0.00727196    -0.63800
H835        H  0.20794585  0.57045323  0.02786517     0.16900
C836        C  0.26628514  0.45558617  0.05539361     0.29100
C837        C  0.30416886  0.45574626  0.06862124    -0.24700
C838        C  0.31048519  0.50003379  0.07945873    -0.24000
C839        C  0.27978304  0.54576554  0.07618684     0.40600
C840        C  0.24127442  0.54522931  0.06310124    -0.26500
O841        O  0.26183951  0.41177619  0.04499504    -0.58400
H842        H  0.32835919  0.42074823  0.07043889     0.16200
O843        O  0.28590380  0.59073982  0.08596354    -0.59800
H844        H  0.21650494  0.57987739  0.06129396     0.14700
H845        H  0.10433913  0.60641741  0.01382289     0.46500
H846        H  0.28750391  0.41799032  0.03546693     0.41900
H847        H  0.25807459  0.58825666  0.09500383     0.45300
H848        H  0.15806779  0.38482529  0.04853033     0.36800
C849        C  0.81362173  0.46803076  0.02920609    -0.27400
C850        C  0.80863686  0.50861665  0.04150961     0.02200
C851        C  0.84901332  0.54746370  0.04281346     0.30300
C852        C  0.89328946  0.54529988  0.03192218    -0.19200
C853        C  0.89863262  0.50438849  0.01979761    -0.28600
C854        C  0.85854269  0.46524362  0.01858763     0.44300
C855        C  0.76466266  0.50653631  0.05423118     0.05500
O856        O  0.84765189  0.58505393  0.05560710    -0.57100
H857        H  0.92435214  0.57504112  0.03324395     0.18400
O858        O  0.86378348  0.42302703  0.00757757    -0.63800
H859        H  0.78337546  0.43735144  0.02824095     0.16900
C860        C  0.73321131  0.55130186  0.05790573     0.29100
C861        C  0.69756946  0.55015602  0.07175170    -0.24700
C862        C  0.69164145  0.50423208  0.08183489    -0.24000
C863        C  0.72019388  0.45820665  0.07728321     0.40600
C864        C  0.75642982  0.45973281  0.06364493    -0.26500
O865        O  0.73755535  0.59657503  0.04821002    -0.58400
H866        H  0.67486625  0.58549076  0.07462504     0.16200
O867        O  0.71428614  0.41184842  0.08634143    -0.59800
H868        H  0.77980891  0.42470084  0.06087319     0.14700
H869        H  0.88541601  0.39664278  0.01394709     0.46500
H870        H  0.71144501  0.59198524  0.03873599     0.41900
H871        H  0.74184823  0.41334286  0.09546913     0.45300
H872        H  0.84303932  0.61953225  0.04964022     0.36800
C873        C  0.26283077  0.52364873  0.94395468    -0.27400
C874        C  0.22563036  0.48213469  0.94532155     0.02200
C875        C  0.22846116  0.43913449  0.93375477     0.30300
C876        C  0.26726763  0.43893411  0.92077560    -0.19200
C877        C  0.30323043  0.48143938  0.91905799    -0.28600
C878        C  0.30147802  0.52340059  0.93100580     0.44300
C879        C  0.18148821  0.48675546  0.95787702     0.05500
O880        O  0.19104983  0.39927672  0.93423049    -0.57100
H881        H  0.26773673  0.40648016  0.91162224     0.18400
O882        O  0.33736293  0.56442525  0.93015194    -0.63800
H883        H  0.26135203  0.55680434  0.95283847     0.16900
C884        C  0.17148322  0.44739843  0.97036942     0.29100
C885        C  0.12791729  0.45240256  0.98152590    -0.24700
C886        C  0.09416330  0.49652269  0.98043869    -0.24000
C887        C  0.10507241  0.53644230  0.96825264     0.40600
C888        C  0.14844943  0.53143406  0.95713726    -0.26500
O889        O  0.20361037  0.40373636  0.97166057    -0.58400
H890        H  0.11969060  0.42122795  0.99076141     0.16200
O891        O  0.07269855  0.57993558  0.96685285    -0.59800
H892        H  0.15566706  0.56205902  0.94762109     0.14700
H893        H  0.36980948  0.55084377  0.93592764     0.46500
H894        H  0.23460164  0.41561744  0.97868122     0.41900
H895        H  0.08853291  0.60699858  0.97462331     0.45300
H896        H  0.21036291  0.36733749  0.93822296     0.36800
C897        C  0.73086411  0.46710407  0.94344025    -0.27400
C898        C  0.76398115  0.51138628  0.94630971     0.02200
C899        C  0.75840683  0.55635543  0.93569585     0.30300
C900        C  0.72110689  0.55599193  0.92228315    -0.19200
C901        C  0.68940033  0.51099018  0.91904868    -0.28600
C902        C  0.69388838  0.46664095  0.92995756     0.44300
C903        C  0.80793913  0.50767625  0.95905770     0.05500
O904        O  0.79224357  0.59898709  0.93739952    -0.57100
H905        H  0.71874707  0.59031716  0.91394508     0.18400
O906        O  0.66299874  0.42227057  0.92741455    -0.63800
H907        H  0.73456378  0.43219848  0.95148112     0.16900
C908        C  0.81663956  0.54683843  0.97177348     0.29100
C909        C  0.86152594  0.54398168  0.98248112    -0.24700
C910        C  0.89757344  0.50176145  0.98093671    -0.24000
C911        C  0.88724871  0.46133994  0.96884082     0.40600
C912        C  0.84305096  0.46463724  0.95800004    -0.26500
O913        O  0.78189479  0.58822913  0.97374687    -0.58400
H914        H  0.86874332  0.57526079  0.99178180     0.16200
O915        O  0.92084109  0.41881430  0.96731860    -0.59800
H916        H  0.83692137  0.43396116  0.94840715     0.14700
H917        H  0.62940604  0.42929666  0.93369491     0.46500
H918        H  0.75286334  0.57417521  0.98111532     0.41900
H919        H  0.90466289  0.39049550  0.97452406     0.45300
H920        H  0.76968099  0.62874256  0.94143623     0.36800
C921        C  0.64799039  0.02819883  0.26573671    -0.27400
C922        C  0.65233816  0.99420163  0.27984421     0.02200
C923        C  0.61138840  0.95728853  0.28293810     0.30300
C924        C  0.56556795  0.95706371  0.27258290    -0.19200
C925        C  0.55787595  0.99476772  0.25930209    -0.28600
C926        C  0.60246457  0.02808544  0.25523828     0.44300
C927        C  0.69953514  0.99857025  0.29132989     0.05500
O928        O  0.61450867  0.92315484  0.29663971    -0.57100
H929        H  0.53449042  0.92844080  0.27545041     0.18400
O930        O  0.60472483  0.05693339  0.24026511    -0.63800
H931        H  0.68075855  0.05468388  0.26263994     0.16900
C932        C  0.73665992  0.95718260  0.29277460     0.29100
C933        C  0.78056755  0.96252807  0.30385859    -0.24700
C934        C  0.78857449  0.00902449  0.31359512    -0.24000
C935        C  0.75171721  0.05087559  0.31184411     0.40600
C936        C  0.70776952  0.04533899  0.30080800    -0.26500
O937        O  0.73139687  0.91227379  0.28290378    -0.58400
H938        H  0.80861606  0.93010892  0.30479186     0.16200
O939        O  0.75646589  0.09626312  0.32147468    -0.59800
H940        H  0.67945740  0.07752711  0.29982532     0.14700
H941        H  0.61138907  0.09436411  0.24372003     0.46500
H942        H  0.72135617  0.88363142  0.29104144     0.41900
H943        H  0.77078857  0.12344622  0.31346028     0.45300
H944        H  0.62029691  0.88755870  0.29152873     0.36800
C945        C  0.35641878  0.99530089  0.26482227    -0.27400
C946        C  0.36117241  0.00139821  0.28262772     0.02200
C947        C  0.41216119  0.00858340  0.28976277     0.30300
C948        C  0.45745108  0.00856224  0.27913357    -0.19200
C949        C  0.45368285  0.99883046  0.26122012    -0.28600
C950        C  0.40138774  0.99503134  0.25417030     0.44300
C951        C  0.31233864  0.00055574  0.29348575     0.05500
O952        O  0.41834672  0.01305086  0.30725341    -0.57100
H953        H  0.49522271  0.01648088  0.28523698     0.18400
O954        O  0.39380279  0.98790528  0.23685254    -0.63800
H955        H  0.31735295  0.99071078  0.25907269     0.16900
C956        C  0.29902119  0.04390835  0.30406912     0.29100
C957        C  0.25257079  0.04242791  0.31405826    -0.24700
C958        C  0.21827872  0.99815325  0.31367784    -0.24000
C959        C  0.23087149  0.95529854  0.30271289     0.40600
C960        C  0.27740778  0.95689087  0.29269066    -0.26500
O961        O  0.33073191  0.08834603  0.30456018    -0.58400
H962        H  0.24364150  0.07603875  0.32225603     0.16200
O963        O  0.19699547  0.91270155  0.30113111    -0.59800
H964        H  0.28639862  0.92371489  0.28430691     0.14700
H965        H  0.37951986  0.02222426  0.23258944     0.46500
H966        H  0.31861325  0.11060631  0.29480584     0.41900
H967        H  0.21490868  0.88302715  0.30715732     0.45300
H968        H  0.43058710  0.05007207  0.30929273     0.36800
C969        C  0.44768578  0.20615462  0.19883168    -0.27400
C970        C  0.49405940  0.18793627  0.20689618     0.02200
C971        C  0.54182489  0.21654325  0.20467197     0.30300
C972        C  0.54304873  0.26196706  0.19422621    -0.19200
C973        C  0.49683744  0.28018122  0.18591150    -0.28600
C974        C  0.44865352  0.25191696  0.18850649     0.44300
C975        C  0.49266819  0.13873073  0.21745353     0.05500
O976        O  0.58807742  0.19902858  0.21208830    -0.57100
H977        H  0.58058581  0.28260641  0.19257594     0.18400
O978        O  0.40216514  0.26842605  0.18101878    -0.63800
H979        H  0.41053729  0.18474268  0.20054524     0.16900
C980        C  0.50024206  0.14076602  0.23530819     0.29100
C981        C  0.50164099  0.09383707  0.24491193    -0.24700
C982        C  0.49819571  0.04309391  0.23707137    -0.24000
C983        C  0.48628307  0.04174100  0.21912591     0.40600
C984        C  0.48384783  0.08934883  0.20962368    -0.26500
O985        O  0.50713384  0.18856544  0.24349414    -0.58400
H986        H  0.50800775  0.09695820  0.25866648     0.16200
O987        O  0.47197331  0.99533208  0.21103486    -0.59800
H988        H  0.47525971  0.08763404  0.19596822     0.14700
H989        H  0.39960521  0.24828270  0.17007196     0.46500
H990        H  0.47167934  0.19738939  0.24834626     0.41900
H991        H  0.49433526  0.99274707  0.20055052     0.45300
H992        H  0.59288466  0.22119631  0.22250893     0.36800
C993        C  0.54111810  0.75227768  0.21230874    -0.27400
C994        C  0.49888287  0.78847057  0.21283284     0.02200
C995        C  0.45299699  0.77842117  0.20293265     0.30300
C996        C  0.45049300  0.73366400  0.19225220    -0.19200
C997        C  0.49340359  0.69824840  0.19124468    -0.28600
C998        C  0.53858707  0.70734558  0.20164224     0.44300
C999        C  0.50337162  0.83781634  0.22315034     0.05500
O1000       O  0.41176622  0.81396370  0.20281821    -0.57100
H1001       H  0.41561151  0.72792440  0.18426891     0.18400
O1002       O  0.58005677  0.67209024  0.20168640    -0.63800
H1003       H  0.57630118  0.75915544  0.22007796     0.16900
C1004       C  0.46809754  0.84783985  0.23671500     0.29100
C1005       C  0.46887147  0.89699372  0.24505322    -0.24700
C1006       C  0.50369902  0.93863028  0.23987532    -0.24000
C1007       C  0.54280087  0.92573126  0.22731093     0.40600
C1008       C  0.54191873  0.87606300  0.21901174    -0.26500
O1009       O  0.43261246  0.80959809  0.24199387    -0.58400
H1010       H  0.44220201  0.90122565  0.25585738     0.16200
O1011       O  0.58234014  0.96134756  0.22319608    -0.59800
H1012       H  0.57075571  0.86789848  0.20898524     0.14700
H1013       H  0.60761372  0.68814147  0.19413929     0.46500
H1014       H  0.45160938  0.78925545  0.25099892     0.41900
H1015       H  0.57971012  0.96756349  0.21062173     0.45300
H1016       H  0.38358939  0.79763237  0.21004494     0.36800
loop_ 
_geom_bond_atom_site_label_1 
_geom_bond_atom_site_label_2 
_geom_bond_distance 
_geom_bond_site_symmetry_2 
_ccdc_geom_bond_type 
C1          C925   1.573       .  S
C1          C949   1.571       .  S
C1          C982   1.565   1_565  S
C1         C1006   1.565       .  S
C2            C3   1.414   1_556  A
C2            C7   1.402       .  A
C2          C910   1.487       .  S
C3            C4   1.407       .  A
C3          C853   1.483       .  S
C4            C5   1.405   1_655  A
C4            H9   1.085       .  S
C5            C6   1.414   1_554  A
C5          C829   1.489       .  S
C6            C7   1.403   1_455  A
C6          C886   1.481       .  S
C7            H8   1.085       .  S
C10         C733   1.569       .  S
C10         C757   1.569       .  S
C10         C790   1.576   1_565  S
C10         C814   1.565       .  S
C11         C637   1.563   1_655  S
C11         C661   1.568   1_655  S
C11         C694   1.567   1_655  S
C11         C718   1.566       .  S
C12          C13   1.411   1_554  A
C12          C17   1.404       .  A
C12         C565   1.480       .  S
C13          C14   1.401       .  A
C13         C613   1.479       .  S
C14          C15   1.401   1_565  A
C14          H19   1.085       .  S
C15          C16   1.413   1_556  A
C15         C589   1.476       .  S
C16          C17   1.405   1_545  A
C16         C541   1.487       .  S
C17          H18   1.085   1_565  S
C20          C57   1.457       .  S
C20         C901   1.480       .  S
C20          N38   1.353       .  A
N21          N38   1.326       .  A
N21          N43   1.320       .  A
N21         Co58   2.095       .  S
C22          C60   1.466       .  S
C22          H67   1.081       .  S
C22          N47   1.343       .  A
H23          C64   1.081       .  S
C24          C28   1.457       .  S
C24          H53   1.081       .  S
C24          N48   1.340       .  A
Co25         N43   2.075       .  S
Co25         N33   2.083       .  S
Co25         N65   2.087       .  S
Co25         N41   2.087       .  S
Co25        Cl69   2.455       .  S
N26          C64   1.342       .  A
N26          N33   1.318       .  A
N26         Co27   2.080       .  S
Co27         N30   2.090       .  S
Co27         N47   2.094       .  S
Co27         N34   2.077       .  S
Co27        Cl69   2.447       .  S
C28         C877   1.476       .  S
C28          N66   1.351       .  A
N29          N36   1.319       .  A
N29          N59   1.325       .  A
N29         Co62   2.085       .  S
N30          N48   1.320       .  A
N30          N66   1.325       .  A
N31          C60   1.352       .  A
N31          N41   1.324       .  A
H32          C57   1.081       .  S
N33          N54   1.323       .  A
N34          N52   1.320       .  A
N34          N39   1.321       .  A
C35          C63   1.465       .  S
C35         C685   1.478       .  S
C35          N39   1.348       .  A
N36          C51   1.341       .  A
N36         Co58   2.080       .  S
C37          C40   1.464       .  S
C37          H71   1.082       .  S
C37          N65   1.343       .  A
C40         C709   1.483       .  S
C40          N61   1.350       .  A
N41          N47   1.320       .  A
N42          C68   1.344       .  A
N42          N44   1.321       .  A
N42         Co58   2.104       .  S
N43          C57   1.339       .  A
N44          N72   1.325       .  A
N44         Co62   2.086       .  S
H45          C68   1.081       .  S
H46          C63   1.081       .  S
N48         Co62   2.080       .  S
N49          N61   1.323       .  A
N49          N65   1.320       .  A
N49         Co58   2.085       .  S
C50          C64   1.463       .  S
C50         C622   1.481       .  S
C50          N54   1.349       .  A
C51          C70   1.457       .  S
C51          H55   1.082       .  S
N52          C63   1.344       .  A
N52         Co62   2.090       .  S
C56          C68   1.469       .  S
C56         C781   1.492       .  S
C56          N72   1.352       .  A
Co58        Cl69   2.445       .  S
N59          C70   1.350       .  A
C60         C805   1.489       .  S
Co62        Cl69   2.459       .  S
C70         C598   1.473       .  S
C73         C110   1.464       .  S
C73         C997   1.482       .  S
C73          N91   1.351       .  A
N74          N91   1.324       .  A
N74          N96   1.321       .  A
N74        Co111   2.088       .  S
C75         C113   1.464       .  S
C75         H120   1.081       .  S
C75         N100   1.341       .  A
H76         C117   1.081       .  S
C77          C81   1.468       .  S
C77         H106   1.081       .  S
C77         N101   1.343       .  A
Co78         N96   2.091       .  S
Co78         N86   2.079       .  S
Co78        N118   2.071       .  S
Co78         N94   2.092       .  S
Co78       Cl122   2.454       .  S
N79         C117   1.342       .  A
N79          N86   1.320       .  A
N79         Co80   2.091       .  S
Co80         N83   2.099       .  S
Co80        N100   2.090       .  S
Co80         N87   2.089       .  S
Co80       Cl122   2.454       .  S
C81         C973   1.495       .  S
C81         N119   1.353       .  A
N82          N89   1.320       .  A
N82         N112   1.328       .  A
N82        Co115   2.095       .  S
N83         N101   1.322       .  A
N83         N119   1.326       .  A
N84         C113   1.352       .  A
N84          N94   1.326       .  A
H85         C110   1.081       .  S
N86         N107   1.323       .  A
N87         N105   1.318       .  A
N87          N92   1.326       .  A
C88         C116   1.460       .  S
C88         C550   1.483       .  S
C88          N92   1.353       .  A
N89         C104   1.339       .  A
N89        Co111   2.084       .  S
C90          C93   1.457       .  S
C90         H124   1.081       .  S
C90         N118   1.339       .  A
C93         C574   1.474       .  S
C93         N114   1.350       .  A
N94         N100   1.320       .  A
N95         C121   1.340       .  A
N95          N97   1.319       .  A
N95        Co111   2.078       .  S
N96         C110   1.342       .  A
N97         N125   1.323       .  A
N97        Co115   2.084       .  S
H98         C121   1.081       .  S
H99         C116   1.081       .  S
N101       Co115   2.096       .  S
N102        N114   1.325       .  A
N102        N118   1.318       .  A
N102       Co111   2.084       .  S
C103        C117   1.464       .  S
C103        C493   1.477       .  S
C103        N107   1.348       .  A
C104        C123   1.460       .  S
C104        H108   1.082       .  S
N105        C116   1.340       .  A
N105       Co115   2.080       .  S
C109        C121   1.461       .  S
C109        C862   1.479       .  S
C109        N125   1.349       .  A
Co111      Cl122   2.448       .  S
N112        C123   1.353       .  A
C113        C838   1.488       .  S
Co115      Cl122   2.453       .  S
C123        C517   1.483       .  S
C126        C163   1.460       .  S
C126        C670   1.482       .  S
C126        N144   1.352   1_455  A
N127        N144   1.324       .  A
N127        N149   1.319   1_655  A
N127       Co164   2.091       .  S
C128        C166   1.457       .  S
C128        H173   1.081       .  S
C128        N153   1.340       .  A
H129        C170   1.081       .  S
C130        C134   1.466       .  S
C130        H159   1.081       .  S
C130        N154   1.342       .  A
Co131       N149   2.076       .  S
Co131       N139   2.070       .  S
Co131       N171   2.070       .  S
Co131       N147   2.075       .  S
Co131      Cl175   2.446   1_565  S
N132        C170   1.344       .  A
N132        N139   1.319   1_545  A
N132       Co133   2.096       .  S
Co133       N136   2.077       .  S
Co133       N153   2.075       .  S
Co133       N140   2.086       .  S
Co133      Cl175   2.448       .  S
C134        C646   1.484       .  S
C134        N172   1.349   1_655  A
N135        N142   1.322   1_545  A
N135        N165   1.325       .  A
N135       Co168   2.092       .  S
N136        N154   1.319   1_455  A
N136        N172   1.321       .  A
N137        C166   1.347   1_565  A
N137        N147   1.323       .  A
H138        C163   1.082       .  S
N139        N160   1.320       .  A
N140        N158   1.319   1_455  A
N140        N145   1.325       .  A
C141        C169   1.463       .  S
C141        C445   1.482   1_655  S
C141        N145   1.350   1_655  A
N142        C157   1.341       .  A
N142       Co164   2.092       .  S
C143        C146   1.457       .  S
C143        H177   1.081       .  S
C143        N171   1.336       .  A
C146        C469   1.475       .  S
C146        N167   1.352   1_455  A
N147        N153   1.318   1_565  A
N148        C174   1.340       .  A
N148        N150   1.319   1_565  A
N148       Co164   2.079       .  S
N149        C163   1.341       .  A
N150        N178   1.322       .  A
N150       Co168   2.076       .  S
H151        C174   1.081       .  S
H152        C169   1.081       .  S
N154       Co168   2.085       .  S
N155        N167   1.325       .  A
N155        N171   1.319   1_655  A
N155       Co164   2.089       .  S
C156        C170   1.469       .  S
C156        C766   1.483   1_545  S
C156        N160   1.347   1_545  A
C157        C176   1.465       .  S
C157        H161   1.081       .  S
N158        C169   1.341       .  A
N158       Co168   2.088       .  S
C162        C174   1.461   1_545  S
C162        C430   1.475       .  S
C162        N178   1.347       .  A
Co164      Cl175   2.450   1_665  S
N165        C176   1.352   1_545  A
C166        C397   1.469       .  S
Co168      Cl175   2.450   1_655  S
C176        C742   1.486       .  S
C179        C216   1.464       .  S
C179        C958   1.487       .  S
C179        N197   1.353   1_565  A
N180        N197   1.325       .  A
N180        N202   1.319   1_545  A
N180       Co217   2.088       .  S
C181        C219   1.458       .  S
C181        H226   1.081       .  S
C181        N206   1.339       .  A
H182        C223   1.082       .  S
C183        C187   1.468       .  S
C183        H212   1.081       .  S
C183        N207   1.344       .  A
Co184       N202   2.090       .  S
Co184       N192   2.077       .  S
Co184       N224   2.084       .  S
Co184       N200   2.089       .  S
Co184      Cl228   2.448   1_565  S
N185        C223   1.343       .  A
N185        N192   1.321   1_655  A
N185       Co186   2.090       .  S
Co186       N189   2.087       .  S
Co186       N206   2.076       .  S
Co186       N193   2.085       .  S
Co186      Cl228   2.454   1_665  S
C187        C934   1.491       .  S
C187        N225   1.352   1_545  A
N188        N195   1.322   1_655  A
N188        N218   1.322       .  A
N188       Co221   2.084       .  S
N189        N207   1.320   1_565  A
N189        N225   1.326       .  A
N190        C219   1.352   1_455  A
N190        N200   1.325       .  A
H191        C216   1.081       .  S
N192        N213   1.321       .  A
N193        N211   1.319   1_565  A
N193        N198   1.324       .  A
C194        C222   1.460       .  S
C194        C373   1.477       .  S
C194        N198   1.349   1_545  A
N195        C210   1.344       .  A
N195       Co217   2.096       .  S
C196        C199   1.463       .  S
C196        H230   1.081       .  S
C196        N224   1.341       .  A
C199        C358   1.483   1_565  S
C199        N220   1.351   1_565  A
N200        N206   1.319   1_455  A
N201        C227   1.338       .  A
N201        N203   1.318   1_455  A
N201       Co217   2.075       .  S
N202        C216   1.341       .  A
N203        N231   1.326       .  A
N203       Co221   2.092       .  S
H204        C227   1.080       .  S
H205        C222   1.081       .  S
N207       Co221   2.100       .  S
N208        N220   1.325       .  A
N208        N224   1.319   1_545  A
N208       Co217   2.089       .  S
C209        C223   1.465       .  S
C209        C253   1.480       .  S
C209        N213   1.348   1_655  A
C210        C229   1.465       .  S
C210        H214   1.082       .  S
N211        C222   1.341       .  A
N211       Co221   2.083       .  S
C215        C227   1.460       .  S
C215        C301   1.483       .  S
C215        N231   1.353   1_455  A
Co217      Cl228   2.456       .  S
N218        C229   1.349   1_655  A
C219        C334   1.477       .  S
Co221      Cl228   2.449   1_655  S
C229        C277   1.483       .  S
C232        C233   1.409   1_455  A
C232        C237   1.401       .  A
C232        C478   1.479       .  S
C233        C234   1.399       .  A
C233        C325   1.479       .  S
C234        C235   1.405       .  A
C234        H239   1.085       .  S
C235        C236   1.418   1_655  A
C235        C310   1.487       .  S
C236        C237   1.406       .  A
C236        C454   1.487       .  S
C237        H238   1.085       .  S
C240        C241   1.410       .  A
C240        C245   1.400       .  A
C240        C421   1.477       .  S
C241        C242   1.402       .  A
C241        C382   1.477       .  S
C242        C243   1.404       .  A
C242        H247   1.085       .  S
C243        C244   1.410       .  A
C243        C349   1.482       .  S
C244        C245   1.399       .  A
C244        C406   1.472       .  S
C245        H246   1.085       .  S
C248        C262   1.561       .  S
C248        C286   1.562   1_455  S
C248        C502   1.566       .  S
C248        C526   1.568   1_455  S
C249        C250   1.402       .  A
C249        C254   1.397       .  A
C249        H259   1.083       .  S
C250        C251   1.411   1_455  A
C250        C255   1.486       .  S
C251        C252   1.402       .  A
C251        O256   1.372       .  S
C252        C253   1.403       .  A
C252        H257   1.083       .  S
C253        C254   1.412   1_655  A
C254        O258   1.372       .  S
C255        C260   1.406       .  A
C255        C264   1.400   1_455  A
O256        H272   0.991       .  S
O258        H269   0.993       .  S
C260        C261   1.399       .  A
C260        O265   1.373       .  S
C261        C262   1.415       .  A
C261        H266   1.078       .  S
C262        C263   1.423   1_455  A
C263        C264   1.400       .  A
C263        O267   1.372       .  S
C264        H268   1.084       .  S
O265        H270   0.995       .  S
O267        H271   0.991       .  S
C273        C274   1.401   1_655  A
C273        C278   1.399       .  A
C273        H283   1.083       .  S
C274        C275   1.410       .  A
C274        C279   1.485   1_455  S
C275        C276   1.403       .  A
C275        O280   1.372       .  S
C276        C277   1.405       .  A
C276        H281   1.083       .  S
C277        C278   1.413   1_455  A
C278        O282   1.371       .  S
C279        C284   1.404       .  A
C279        C288   1.399   1_655  A
O280        H296   0.992       .  S
O282        H293   0.992       .  S
C284        C285   1.400       .  A
C284        O289   1.372       .  S
C285        C286   1.415       .  A
C285        H290   1.078       .  S
C286        C287   1.425   1_655  A
C287        C288   1.403       .  A
C287        O291   1.373       .  S
C288        H292   1.084       .  S
O289        H294   0.992       .  S
O291        H295   0.992       .  S
C297        C298   1.403       .  A
C297        C302   1.400       .  A
C297        H307   1.084       .  S
C298        C299   1.410   1_455  A
C298        C303   1.486       .  S
C299        C300   1.400       .  A
C299        O304   1.371       .  S
C300        C301   1.405   1_655  A
C300        H305   1.084       .  S
C301        C302   1.413       .  A
C302        O306   1.371       .  S
C303        C308   1.411       .  A
C303        C312   1.403   1_455  A
O304        H320   0.991       .  S
O306        H317   0.993       .  S
C308        C309   1.402       .  A
C308        O313   1.371       .  S
C309        C310   1.404   1_455  A
C309        H314   1.083       .  S
C310        C311   1.410       .  A
C311        C312   1.397       .  A
C311        O315   1.372       .  S
C312        H316   1.083       .  S
O313        H318   0.992       .  S
O315        H319   0.992       .  S
C321        C322   1.407       .  A
C321        C326   1.400       .  A
C321        H331   1.083       .  S
C322        C323   1.410   1_655  A
C322        C327   1.487       .  S
C323        C324   1.399       .  A
C323        O328   1.374       .  S
C324        C325   1.400   1_455  A
C324        H329   1.081       .  S
C325        C326   1.406       .  A
C326        O330   1.372       .  S
C327        C332   1.412   1_655  A
C327        C336   1.404       .  A
O328        H344   0.993       .  S
O330        H341   0.993       .  S
C332        C333   1.398       .  A
C332        O337   1.371       .  S
C333        C334   1.401   1_455  A
C333        H338   1.084       .  S
C334        C335   1.411       .  A
C335        C336   1.400       .  A
C335        O339   1.371       .  S
C336        H340   1.084       .  S
O337        H342   0.992       .  S
O339        H343   0.993       .  S
C345        C346   1.403   1_565  A
C345        C350   1.397       .  A
C345        H355   1.084       .  S
C346        C347   1.410       .  A
C346        C351   1.483       .  S
C347        C348   1.404       .  A
C347        O352   1.373       .  S
C348        C349   1.404       .  A
C348        H353   1.083       .  S
C349        C350   1.407   1_545  A
C350        O354   1.372       .  S
C351        C356   1.409       .  A
C351        C360   1.403   1_545  A
O352        H368   0.990       .  S
O354        H365   0.992       .  S
C356        C357   1.401       .  A
C356        O361   1.372       .  S
C357        C358   1.405       .  A
C357        H362   1.083       .  S
C358        C359   1.411   1_545  A
C359        C360   1.400       .  A
C359        O363   1.371       .  S
C360        H364   1.084       .  S
O361        H366   0.992       .  S
O363        H367   0.992       .  S
C369        C370   1.403   1_565  A
C369        C374   1.399       .  A
C369        H379   1.084       .  S
C370        C371   1.409       .  A
C370        C375   1.483       .  S
C371        C372   1.403       .  A
C371        O376   1.373       .  S
C372        C373   1.404       .  A
C372        H377   1.083       .  S
C373        C374   1.409   1_545  A
C374        O378   1.372       .  S
C375        C380   1.410       .  A
C375        C384   1.406   1_545  A
O376        H392   0.992       .  S
O378        H389   0.993       .  S
C380        C381   1.397       .  A
C380        O385   1.371       .  S
C381        C382   1.401       .  A
C381        H386   1.084       .  S
C382        C383   1.406   1_545  A
C383        C384   1.401       .  A
C383        O387   1.371       .  S
C384        H388   1.083       .  S
O385        H390   0.992       .  S
O387        H391   0.993       .  S
C393        C394   1.402   1_565  A
C393        C398   1.396       .  A
C393        H403   1.084       .  S
C394        C395   1.407       .  A
C394        C399   1.476       .  S
C395        C396   1.400       .  A
C395        O400   1.373       .  S
C396        C397   1.402       .  A
C396        H401   1.083       .  S
C397        C398   1.407   1_545  A
C398        O402   1.372       .  S
C399        C404   1.408       .  A
C399        C408   1.404   1_545  A
O400        H416   0.991       .  S
O402        H413   0.992       .  S
C404        C405   1.396       .  A
C404        O409   1.372       .  S
C405        C406   1.401       .  A
C405        H410   1.084       .  S
C406        C407   1.405   1_545  A
C407        C408   1.398       .  A
C407        O411   1.371       .  S
C408        H412   1.084       .  S
O409        H414   0.992       .  S
O411        H415   0.993       .  S
C417        C418   1.405       .  A
C417        C422   1.400       .  A
C417        H427   1.084       .  S
C418        C419   1.408   1_545  A
C418        C423   1.478       .  S
C419        C420   1.396       .  A
C419        O424   1.373       .  S
C420        C421   1.401   1_565  A
C420        H425   1.084       .  S
C421        C422   1.407       .  A
C422        O426   1.371       .  S
C423        C428   1.408   1_545  A
C423        C432   1.402       .  A
O424        H440   0.991       .  S
O426        H437   0.993       .  S
C428        C429   1.397       .  A
C428        O433   1.371       .  S
C429        C430   1.403   1_565  A
C429        H434   1.083       .  S
C430        C431   1.411       .  A
C431        C432   1.397       .  A
C431        O435   1.372       .  S
C432        H436   1.084       .  S
O433        H438   0.992       .  S
O435        H439   0.992       .  S
C441        C442   1.405       .  A
C441        C446   1.402       .  A
C441        H451   1.083       .  S
C442        C443   1.410   1_455  A
C442        C447   1.488       .  S
C443        C444   1.398       .  A
C443        O448   1.372       .  S
C444        C445   1.404   1_655  A
C444        H449   1.083       .  S
C445        C446   1.411       .  A
C446        O450   1.372       .  S
C447        C452   1.410       .  A
C447        C456   1.406   1_455  A
O448        H464   0.993       .  S
O450        H461   0.992       .  S
C452        C453   1.399       .  A
C452        O457   1.372       .  S
C453        C454   1.405       .  A
C453        H458   1.084       .  S
C454        C455   1.408   1_455  A
C455        C456   1.400       .  A
C455        O459   1.371       .  S
C456        H460   1.083       .  S
O457        H462   0.992       .  S
O459        H463   0.991       .  S
C465        C466   1.402       .  A
C465        C470   1.394       .  A
C465        H475   1.084       .  S
C466        C467   1.409   1_455  A
C466        C471   1.481       .  S
C467        C468   1.401       .  A
C467        O472   1.371       .  S
C468        C469   1.404   1_655  A
C468        H473   1.084       .  S
C469        C470   1.410       .  A
C470        O474   1.371       .  S
C471        C476   1.409       .  A
C471        C480   1.405   1_455  A
O472        H488   0.992       .  S
O474        H485   0.992       .  S
C476        C477   1.396       .  A
C476        O481   1.372       .  S
C477        C478   1.401       .  A
C477        H482   1.081       .  S
C478        C479   1.406   1_455  A
C479        C480   1.399       .  A
C479        O483   1.371       .  S
C480        H484   1.083       .  S
O481        H486   0.992       .  S
O483        H487   0.995       .  S
C489        C490   1.404       .  A
C489        C494   1.400       .  A
C489        H499   1.084       .  S
C490        C491   1.408       .  A
C490        C495   1.482       .  S
C491        C492   1.402       .  A
C491        O496   1.372       .  S
C492        C493   1.404       .  A
C492        H497   1.084       .  S
C493        C494   1.409       .  A
C494        O498   1.371       .  S
C495        C500   1.403       .  A
C495        C504   1.396       .  A
O496        H512   0.992       .  S
O498        H509   0.991       .  S
C500        C501   1.400       .  A
C500        O505   1.371       .  S
C501        C502   1.417       .  A
C501        H506   1.082       .  S
C502        C503   1.430       .  A
C503        C504   1.401       .  A
C503        O507   1.373       .  S
C504        H508   1.084       .  S
O505        H510   0.994       .  S
O507        H511   0.994       .  S
C513        C514   1.403       .  A
C513        C518   1.400       .  A
C513        H523   1.084       .  S
C514        C515   1.410       .  A
C514        C519   1.487       .  S
C515        C516   1.406       .  A
C515        O520   1.372       .  S
C516        C517   1.403       .  A
C516        H521   1.084       .  S
C517        C518   1.412       .  A
C518        O522   1.371       .  S
C519        C524   1.404       .  A
C519        C528   1.399       .  A
O520        H536   0.992       .  S
O522        H533   0.993       .  S
C524        C525   1.403       .  A
C524        O529   1.372       .  S
C525        C526   1.416       .  A
C525        H530   1.083       .  S
C526        C527   1.429       .  A
C527        C528   1.401       .  A
C527        O531   1.371       .  S
C528        H532   1.084       .  S
O529        H534   0.991       .  S
O531        H535   0.991       .  S
C537        C538   1.404       .  A
C537        C542   1.399       .  A
C537        H547   1.084       .  S
C538        C539   1.408       .  A
C538        C543   1.485       .  S
C539        C540   1.402       .  A
C539        O544   1.373       .  S
C540        C541   1.404       .  A
C540        H545   1.082       .  S
C541        C542   1.410       .  A
C542        O546   1.372       .  S
C543        C548   1.410       .  A
C543        C552   1.403       .  A
O544        H560   0.993       .  S
O546        H557   0.992       .  S
C548        C549   1.399       .  A
C548        O553   1.371       .  S
C549        C550   1.403       .  A
C549        H554   1.083       .  S
C550        C551   1.413       .  A
C551        C552   1.402       .  A
C551        O555   1.371       .  S
C552        H556   1.084       .  S
O553        H558   0.992       .  S
O555        H559   0.993       .  S
C561        C562   1.406       .  A
C561        C566   1.400       .  A
C561        H571   1.083       .  S
C562        C563   1.411       .  A
C562        C567   1.486       .  S
C563        C564   1.397       .  A
C563        O568   1.372       .  S
C564        C565   1.402       .  A
C564        H569   1.084       .  S
C565        C566   1.408       .  A
C566        O570   1.371       .  S
C567        C572   1.410       .  A
C567        C576   1.406       .  A
O568        H584   0.992       .  S
O570        H581   0.992       .  S
C572        C573   1.399       .  A
C572        O577   1.372       .  S
C573        C574   1.402       .  A
C573        H578   1.083       .  S
C574        C575   1.407       .  A
C575        C576   1.400       .  A
C575        O579   1.372       .  S
C576        H580   1.083       .  S
O577        H582   0.993       .  S
O579        H583   0.992       .  S
C585        C586   1.408       .  A
C585        C590   1.400       .  A
C585        H595   1.082       .  S
C586        C587   1.414       .  A
C586        C591   1.492       .  S
C587        C588   1.397       .  A
C587        O592   1.372       .  S
C588        C589   1.400       .  A
C588        H593   1.084       .  S
C589        C590   1.404       .  A
C590        O594   1.371       .  S
C591        C596   1.413       .  A
C591        C600   1.407       .  A
O592        H608   0.992       .  S
O594        H605   0.991       .  S
C596        C597   1.403       .  A
C596        O601   1.372       .  S
C597        C598   1.401       .  A
C597        H602   1.084       .  S
C598        C599   1.405       .  A
C599        C600   1.398       .  A
C599        O603   1.372       .  S
C600        H604   1.083       .  S
O601        H606   0.993       .  S
O603        H607   0.992       .  S
C609        C610   1.407       .  A
C609        C614   1.402       .  A
C609        H619   1.083       .  S
C610        C611   1.411       .  A
C610        C615   1.488       .  S
C611        C612   1.398       .  A
C611        O616   1.372       .  S
C612        C613   1.401       .  A
C612        H617   1.084       .  S
C613        C614   1.406       .  A
C614        O618   1.372       .  S
C615        C620   1.410       .  A
C615        C624   1.404       .  A
O616        H632   0.993       .  S
O618        H629   0.991       .  S
C620        C621   1.400       .  A
C620        O625   1.372       .  S
C621        C622   1.404       .  A
C621        H626   1.084       .  S
C622        C623   1.409       .  A
C623        C624   1.401       .  A
C623        O627   1.369       .  S
C624        H628   1.083       .  S
O625        H630   0.992       .  S
O627        H631   0.991       .  S
C633        C634   1.401   1_655  A
C633        C638   1.403       .  A
C633        H643   1.083       .  S
C634        C635   1.406       .  A
C634        C639   1.488   1_455  S
C635        C636   1.397       .  A
C635        O640   1.372       .  S
C636        C637   1.416       .  A
C636        H641   1.077       .  S
C637        C638   1.424   1_455  A
C638        O642   1.373       .  S
C639        C644   1.410       .  A
C639        C648   1.403   1_655  A
O640        H656   0.991       .  S
O642        H653   0.992       .  S
C644        C645   1.403       .  A
C644        O649   1.372       .  S
C645        C646   1.405       .  A
C645        H650   1.083       .  S
C646        C647   1.413   1_655  A
C647        C648   1.397       .  A
C647        O651   1.372       .  S
C648        H652   1.083       .  S
O649        H654   0.992       .  S
O651        H655   0.992       .  S
C657        C658   1.401       .  A
C657        C662   1.404       .  A
C657        H667   1.083       .  S
C658        C659   1.404   1_455  A
C658        C663   1.485       .  S
C659        C660   1.395       .  A
C659        O664   1.372       .  S
C660        C661   1.417   1_655  A
C660        H665   1.078       .  S
C661        C662   1.424       .  A
C662        O666   1.372       .  S
C663        C668   1.410       .  A
C663        C672   1.402   1_455  A
O664        H680   0.992       .  S
O666        H677   0.991       .  S
C668        C669   1.403       .  A
C668        O673   1.372       .  S
C669        C670   1.407       .  A
C669        H674   1.083       .  S
C670        C671   1.410   1_455  A
C671        C672   1.396       .  A
C671        O675   1.371       .  S
C672        H676   1.084       .  S
O673        H678   0.994       .  S
O675        H679   0.993       .  S
C681        C682   1.404       .  A
C681        C686   1.402       .  A
C681        H691   1.084       .  S
C682        C683   1.405       .  A
C682        C687   1.479       .  S
C683        C684   1.398       .  A
C683        O688   1.373       .  S
C684        C685   1.405       .  A
C684        H689   1.083       .  S
C685        C686   1.409       .  A
C686        O690   1.371       .  S
C687        C692   1.401       .  A
C687        C696   1.398       .  A
O688        H704   0.993       .  S
O690        H701   0.993       .  S
C692        C693   1.397       .  A
C692        O697   1.373       .  S
C693        C694   1.417       .  A
C693        H698   1.078       .  S
C694        C695   1.426       .  A
C695        C696   1.403       .  A
C695        O699   1.374       .  S
C696        H700   1.084       .  S
O697        H702   0.992       .  S
O699        H703   0.992       .  S
C705        C706   1.402       .  A
C705        C710   1.397       .  A
C705        H715   1.084       .  S
C706        C707   1.410       .  A
C706        C711   1.487       .  S
C707        C708   1.405       .  A
C707        O712   1.372       .  S
C708        C709   1.405       .  A
C708        H713   1.083       .  S
C709        C710   1.412       .  A
C710        O714   1.371       .  S
C711        C716   1.403       .  A
C711        C720   1.400       .  A
O712        H728   0.993       .  S
O714        H725   0.992       .  S
C716        C717   1.398       .  A
C716        O721   1.371       .  S
C717        C718   1.418       .  A
C717        H722   1.084       .  S
C718        C719   1.428       .  A
C719        C720   1.403       .  A
C719        O723   1.373       .  S
C720        H724   1.084       .  S
O721        H726   0.992       .  S
O723        H727   0.994       .  S
C729        C730   1.396       .  A
C729        C734   1.400       .  A
C729        H739   1.084       .  S
C730        C731   1.405   1_565  A
C730        C735   1.487       .  S
C731        C732   1.406       .  A
C731        O736   1.372       .  S
C732        C733   1.418   1_545  A
C732        H737   1.083       .  S
C733        C734   1.431       .  A
C734        O738   1.370       .  S
C735        C740   1.408   1_565  A
C735        C744   1.404       .  A
O736        H752   0.993       .  S
O738        H749   0.991       .  S
C740        C741   1.402       .  A
C740        O745   1.371       .  S
C741        C742   1.405   1_545  A
C741        H746   1.084       .  S
C742        C743   1.413       .  A
C743        C744   1.402       .  A
C743        O747   1.371       .  S
C744        H748   1.084       .  S
O745        H750   0.993       .  S
O747        H751   0.991       .  S
C753        C754   1.397       .  A
C753        C758   1.402       .  A
C753        H763   1.084       .  S
C754        C755   1.398       .  A
C754        C759   1.476       .  S
C755        C756   1.397       .  A
C755        O760   1.372       .  S
C756        C757   1.421       .  A
C756        H761   1.083       .  S
C757        C758   1.428       .  A
C758        O762   1.370       .  S
C759        C764   1.407   1_565  A
C759        C768   1.398       .  A
O760        H776   0.992   1_565  S
O762        H773   0.992       .  S
C764        C765   1.402       .  A
C764        O769   1.372       .  S
C765        C766   1.406   1_545  A
C765        H770   1.083       .  S
C766        C767   1.415       .  A
C767        C768   1.397       .  A
C767        O771   1.371       .  S
C768        H772   1.084       .  S
O769        H774   0.992       .  S
O771        H775   0.993       .  S
C777        C778   1.404       .  A
C777        C782   1.406       .  A
C777        H787   1.084       .  S
C778        C779   1.409       .  A
C778        C783   1.491       .  S
C779        C780   1.404       .  A
C779        O784   1.373       .  S
C780        C781   1.407       .  A
C780        H785   1.083       .  S
C781        C782   1.412       .  A
C782        O786   1.371       .  S
C783        C788   1.403       .  A
C783        C792   1.402       .  A
O784        H800   0.991       .  S
O786        H797   0.991       .  S
C788        C789   1.400       .  A
C788        O793   1.372       .  S
C789        C790   1.422       .  A
C789        H794   1.079       .  S
C790        C791   1.424       .  A
C791        C792   1.408       .  A
C791        O795   1.372       .  S
C792        H796   1.084       .  S
O793        H798   0.991       .  S
O795        H799   0.989       .  S
C801        C802   1.400       .  A
C801        C806   1.402       .  A
C801        H811   1.084       .  S
C802        C803   1.405       .  A
C802        C807   1.479       .  S
C803        C804   1.403       .  A
C803        O808   1.372       .  S
C804        C805   1.408       .  A
C804        H809   1.082       .  S
C805        C806   1.413       .  A
C806        O810   1.372       .  S
C807        C812   1.403       .  A
C807        C816   1.395       .  A
O808        H824   0.991       .  S
O810        H821   0.993       .  S
C812        C813   1.403       .  A
C812        O817   1.371       .  S
C813        C814   1.416       .  A
C813        H818   1.078       .  S
C814        C815   1.427       .  A
C815        C816   1.400       .  A
C815        O819   1.371       .  S
C816        H820   1.084       .  S
O817        H822   0.993       .  S
O819        H823   0.993       .  S
C825        C826   1.406       .  A
C825        C830   1.404       .  A
C825        H835   1.083       .  S
C826        C827   1.411       .  A
C826        C831   1.490       .  S
C827        C828   1.401       .  A
C827        O832   1.373       .  S
C828        C829   1.403       .  A
C828        H833   1.084       .  S
C829        C830   1.410       .  A
C830        O834   1.371       .  S
C831        C836   1.409       .  A
C831        C840   1.405       .  A
O832        H848   0.991       .  S
O834        H845   0.993       .  S
C836        C837   1.401       .  A
C836        O841   1.371       .  S
C837        C838   1.406       .  A
C837        H842   1.082       .  S
C838        C839   1.413       .  A
C839        C840   1.404       .  A
C839        O843   1.371       .  S
C840        H844   1.084       .  S
O841        H846   0.993       .  S
O843        H847   0.992       .  S
C849        C850   1.405       .  A
C849        C854   1.399       .  A
C849        H859   1.084       .  S
C850        C851   1.409       .  A
C850        C855   1.482       .  S
C851        C852   1.398       .  A
C851        O856   1.373       .  S
C852        C853   1.402       .  A
C852        H857   1.084       .  S
C853        C854   1.409       .  A
C854        O858   1.371       .  S
C855        C860   1.409       .  A
C855        C864   1.403       .  A
O856        H872   0.992       .  S
O858        H869   0.993       .  S
C860        C861   1.399       .  A
C860        O865   1.371       .  S
C861        C862   1.405       .  A
C861        H866   1.082       .  S
C862        C863   1.411       .  A
C863        C864   1.397       .  A
C863        O867   1.372       .  S
C864        H868   1.084       .  S
O865        H870   0.992       .  S
O867        H871   0.992       .  S
C873        C874   1.403       .  A
C873        C878   1.398       .  A
C873        H883   1.084       .  S
C874        C875   1.409       .  A
C874        C879   1.481       .  S
C875        C876   1.402       .  A
C875        O880   1.372       .  S
C876        C877   1.404       .  A
C876        H881   1.083       .  S
C877        C878   1.407       .  A
C878        O882   1.370       .  S
C879        C884   1.410       .  A
C879        C888   1.403       .  A
O880        H896   0.992       .  S
O882        H893   0.993       .  S
C884        C885   1.402       .  A
C884        O889   1.371       .  S
C885        C886   1.404       .  A
C885        H890   1.083       .  S
C886        C887   1.408       .  A
C887        C888   1.396       .  A
C887        O891   1.372       .  S
C888        H892   1.084       .  S
O889        H894   0.995       .  S
O891        H895   0.992       .  S
C897        C898   1.406       .  A
C897        C902   1.400       .  A
C897        H907   1.084       .  S
C898        C899   1.410       .  A
C898        C903   1.487       .  S
C899        C900   1.402       .  A
C899        O904   1.373       .  S
C900        C901   1.405       .  A
C900        H905   1.083       .  S
C901        C902   1.408       .  A
C902        O906   1.372       .  S
C903        C908   1.412       .  A
C903        C912   1.403       .  A
O904        H920   0.992       .  S
O906        H917   0.991       .  S
C908        C909   1.404       .  A
C908        O913   1.371       .  S
C909        C910   1.405       .  A
C909        H914   1.083       .  S
C910        C911   1.408       .  A
C911        C912   1.397       .  A
C911        O915   1.372       .  S
C912        H916   1.084       .  S
O913        H918   0.991       .  S
O915        H919   0.993       .  S
C921        C922   1.396   1_545  A
C921        C926   1.405       .  A
C921        H931   1.084       .  S
C922        C923   1.404       .  A
C922        C927   1.488       .  S
C923        C924   1.404       .  A
C923        O928   1.372       .  S
C924        C925   1.417       .  A
C924        H929   1.083       .  S
C925        C926   1.431   1_565  A
C926        O930   1.373       .  S
C927        C932   1.407       .  A
C927        C936   1.403   1_565  A
O928        H944   0.992       .  S
O930        H941   0.994       .  S
C932        C933   1.405       .  A
C932        O937   1.372       .  S
C933        C934   1.407   1_565  A
C933        H938   1.084       .  S
C934        C935   1.413       .  A
C935        C936   1.404       .  A
C935        O939   1.371       .  S
C936        H940   1.084       .  S
O937        H942   0.992       .  S
O939        H943   0.992       .  S
C945        C946   1.397   1_565  A
C945        C950   1.400       .  A
C945        H955   1.084       .  S
C946        C947   1.406       .  A
C946        C951   1.488       .  S
C947        C948   1.405       .  A
C947        O952   1.373       .  S
C948        C949   1.416   1_545  A
C948        H953   1.078       .  S
C949        C950   1.426       .  A
C950        O954   1.371       .  S
C951        C956   1.408       .  A
C951        C960   1.405   1_545  A
O952        H968   0.993       .  S
O954        H965   0.995   1_565  S
C956        C957   1.401       .  A
C956        O961   1.371       .  S
C957        C958   1.406   1_545  A
C957        H962   1.083       .  S
C958        C959   1.412       .  A
C959        C960   1.404       .  A
C959        O963   1.372       .  S
C960        H964   1.084       .  S
O961        H966   0.992       .  S
O963        H967   0.992       .  S
C969        C970   1.402       .  A
C969        C974   1.405       .  A
C969        H979   1.084       .  S
C970        C971   1.407       .  A
C970        C975   1.487       .  S
C971        C972   1.404       .  A
C971        O976   1.372       .  S
C972        C973   1.408       .  A
C972        H977   1.082       .  S
C973        C974   1.415       .  A
C974        O978   1.371       .  S
C975        C980   1.401       .  A
C975        C984   1.401       .  A
O976        H992   0.990       .  S
O978        H989   0.992       .  S
C980        C981   1.399       .  A
C980        O985   1.371       .  S
C981        C982   1.418       .  A
C981        H986   1.084       .  S
C982        C983   1.427       .  A
C983        C984   1.411       .  A
C983        O987   1.373   1_545  S
C984        H988   1.084       .  S
O985        H990   0.993       .  S
O987        H991   0.991       .  S
C993        C994   1.403       .  A
C993        C998   1.403       .  A
C993       H1003   1.084       .  S
C994        C995   1.408       .  A
C994        C999   1.482       .  S
C995        C996   1.400       .  A
C995       O1000   1.372       .  S
C996        C997   1.404       .  A
C996       H1001   1.083       .  S
C997        C998   1.411       .  A
C998       O1002   1.372       .  S
C999       C1004   1.400       .  A
C999       C1008   1.400       .  A
O1000      H1016   0.991       .  S
O1002      H1013   0.992       .  S
C1004      C1005   1.397       .  A
C1004      O1009   1.372       .  S
C1005      C1006   1.421       .  A
C1005      H1010   1.079       .  S
C1006      C1007   1.423       .  A
C1007      C1008   1.407       .  A
C1007      O1011   1.373       .  S
C1008      H1012   1.084       .  S
O1009      H1014   0.992       .  S
O1011      H1015   0.992       .  S
