geometry optimzed in LAMMPS
_audit_creation_date              2020-12-01 
_audit_creation_method            'lammps2cif' 
_symmetry_space_group_name_H-M    'P1' 
_symmetry_Int_Tables_number       1 
_symmetry_cell_setting            triclinic 
loop_ 
_symmetry_equiv_pos_as_xyz 
  x,y,z 
_cell_length_a                    50.14998456 
_cell_length_b                    49.14262117149231 
_cell_length_c                    34.64889083067238 
_cell_angle_alpha                 90.5584496651859 
_cell_angle_beta                  96.18452076233513 
_cell_angle_gamma                 119.1521251983963 
loop_ 
_atom_site_label 
_atom_site_type_symbol 
_atom_site_fract_x 
_atom_site_fract_y 
_atom_site_fract_z 
_atom_site_charge 
C1          C  0.35219099  0.14789970  0.98232550     0.03500
C2          C  0.32029245  0.13066930  0.98429819    -0.12700
C3          C  0.30206078  0.14530327  0.98116375     0.01000
C4          C  0.31602974  0.17749691  0.97586215    -0.11200
C5          C  0.34764468  0.19467601  0.97263698     0.03500
C6          C  0.36552583  0.17984711  0.97643533    -0.10600
H7          H  0.30947582  0.10570350  0.98712428     0.09100
H8          H  0.30202233  0.18871907  0.97192631     0.06600
H9          H  0.38973508  0.19301333  0.97292128     0.06400
C10         C  0.34896029  0.15416901  0.19116709     0.03500
C11         C  0.31729731  0.14317434  0.18788495    -0.12700
C12         C  0.30593294  0.16426083  0.18630540     0.01000
C13         C  0.32673592  0.19642096  0.19038697    -0.11200
C14         C  0.35858039  0.20752687  0.19485247     0.03500
C15         C  0.36937925  0.18621010  0.19409766    -0.10600
H16         H  0.30152770  0.11822686  0.18551601     0.09100
H17         H  0.31818797  0.21283965  0.18850210     0.06600
H18         H  0.39376736  0.19446280  0.19436216     0.06400
C19         C  0.13549115  0.34749006  0.28925028     0.03500
C20         C  0.16764106  0.36047820  0.29355129    -0.12700
C21         C  0.18142595  0.34175401  0.30125412     0.01000
C22         C  0.16241666  0.30941311  0.30387538    -0.11200
C23         C  0.13005742  0.29591177  0.29884008     0.03500
C24         C  0.11694887  0.31520060  0.29111968    -0.10600
H25         H  0.18201804  0.38546063  0.29226279     0.09100
H26         H  0.17281191  0.29508035  0.31177228     0.06600
H27         H  0.09215408  0.30523774  0.28821079     0.06400
C28         C  0.13264558  0.33321377  0.05995998     0.03500
C29         C  0.11644082  0.30085469  0.05257676    -0.12700
C30         C  0.13219014  0.28428628  0.04927023     0.01000
C31         C  0.16439433  0.30021788  0.05234229    -0.11200
C32         C  0.18091198  0.33282716  0.05929419     0.03500
C33         C  0.16480872  0.34932575  0.06223797    -0.10600
H34         H  0.09157292  0.28837156  0.05146212     0.09100
H35         H  0.17655899  0.28712548  0.05114334     0.06600
H36         H  0.17732068  0.37447089  0.06815690     0.06400
O37         O  0.05136672  0.98971835  0.41469008    -0.79800
O38         O  0.44697372  0.02136287  0.38036754    -0.79800
O39         O  0.02689762  0.06188491  0.37012691    -0.79800
O40         O  0.46089924  0.47090208  0.47096314    -0.79800
O41         O  0.98746274  0.04574415  0.32460748    -0.79900
O42         O  0.00870597  0.48823020  0.46194258    -0.79800
O43         O  0.47774066  0.02622225  0.43394550    -0.79800
O44         O  0.05531144  0.03533774  0.41168694    -0.79800
C45         C  0.06757215  0.01905304  0.42184244     1.09900
C46         C  0.45989176  0.03404210  0.41449570     1.09800
C47         C  0.01040942  0.06790012  0.34565837     1.09900
C48         C  0.48880972  0.48074857  0.48407866     1.09800
O49         O  0.50151801  0.43275525  0.42708513    -0.79800
O50         O  0.47214121  0.98760169  0.29521488    -0.79900
O51         O  0.04408826  0.49565539  0.34346132    -0.79800
O52         O  0.42638127  0.46575038  0.40308393    -0.79800
O53         O  0.43039722  0.45733006  0.34314565    -0.79800
O54         O  0.00326925  0.45163061  0.35410815    -0.79800
O55         O  0.45908681  0.43510604  0.41010795    -0.79800
O56         O  0.02044678  0.02483233  0.29986743    -0.79800
Co57       Co  0.00356609  0.46961988  0.40526782     1.51500
Co58       Co  0.46049970  0.00312318  0.33905536     1.51700
Co59       Co  0.03513152  0.02803513  0.35758383     1.51600
Co60       Co  0.47137316  0.48192904  0.42036297     1.51500
O61         O  0.49384852  0.49817610  0.37406540    -1.41700
C62         C  0.47229942  0.41909829  0.42152338     1.09800
C63         C  0.49690006  0.50341020  0.27936102     1.09900
C64         C  0.02740437  0.46589778  0.33776245     1.09800
C65         C  0.41365790  0.45221433  0.36977204     1.09800
O66         O  0.06254126  0.04136433  0.16892423    -0.79800
O67         O  0.44892519  0.02159461  0.11791566    -0.79800
O68         O  0.03112050  0.04889334  0.08973934    -0.79800
O69         O  0.47414483  0.47600883  0.21759193    -0.79800
O70         O  0.98482229  0.03806389  0.06941549    -0.79900
O71         O  0.02090827  0.52077384  0.22423281    -0.79800
O72         O  0.46139315  0.01598669  0.17761273    -0.79800
O73         O  0.06525415  0.02677707  0.10997881    -0.79800
C74         C  0.07787830  0.04454201  0.14107728     1.09900
C75         C  0.45064150  0.02784278  0.15350371     1.09800
C76         C  0.01300332  0.05707332  0.07391260     1.09900
C77         C  0.49688044  0.49907596  0.23748508     1.09800
O78         O  0.50636227  0.45594198  0.19452122    -0.79800
O79         O  0.48157711  0.98087606  0.05046384    -0.79900
O80         O  0.01674407  0.46601248  0.09969914    -0.79800
O81         O  0.42060043  0.44772665  0.16372107    -0.79800
O82         O  0.43082347  0.45201085  0.10272322    -0.79800
O83         O  0.05043307  0.48211342  0.15145687    -0.79800
O84         O  0.46838057  0.43940389  0.14706004    -0.79800
O85         O  0.02578290  0.00416416  0.03943300    -0.79800
Co86       Co  0.03360364  0.50234297  0.18401624     1.51500
Co87       Co  0.46784957  0.00085361  0.09120888     1.51700
Co88       Co  0.01967676  0.00518338  0.09232277     1.51600
Co89       Co  0.46283846  0.47523626  0.15997608     1.51500
O90         O  0.50017305  0.50355428  0.13935642    -1.41700
C91         C  0.48434932  0.43383697  0.17289239     1.09800
C92         C  0.49729985  0.48885751  0.02579187     1.09900
C93         C  0.03666244  0.46313304  0.12191011     1.09800
C94         C  0.41110580  0.44199897  0.12750030     1.09800
C95         C  0.07226874  0.20188836  0.01520939    -0.01700
C96         C  0.07512960  0.18571515  0.04714674     0.06900
C97         C  0.09789763  0.20155238  0.07881200    -0.07600
C98         C  0.11762526  0.23364904  0.07932055     0.04400
C99         C  0.11462357  0.25006632  0.04750329    -0.14900
C100        C  0.09197030  0.23404765  0.01563318    -0.08200
C101        C  0.05569204  0.15186004  0.04760814     0.05300
C102        C  0.06758373  0.13300448  0.03635285    -0.09300
C103        C  0.05229170  0.10123901  0.04175969     0.00300
C104        C  0.02532898  0.08840043  0.06007908     0.00200
C105        C  0.01191220  0.10670221  0.06801898    -0.12900
C106        C  0.02691895  0.13849060  0.06164013     0.00600
C107        C  0.06439280  0.08221610  0.02769774     0.39900
C108        C  0.01297120  0.15709120  0.07052830     0.36600
C109        C  0.04919467  0.18581523  0.98210546     0.36300
C110        C  0.13974723  0.24943745  0.11342364     0.37000
N111        N  0.58080612  0.06956284  0.02323630    -0.43800
N112        N  0.00167745  0.17198597  0.07721343    -0.44200
N113        N  0.15749893  0.26221303  0.14065096    -0.41600
N114        N  0.03057896  0.17257857  0.95579792    -0.43000
H115        H  0.08944600  0.24679400  0.99142685     0.13200
H116        H  0.10000988  0.18879567  0.10326313     0.09700
H117        H  0.08919713  0.14330577  0.02416309     0.10700
H118        H  0.99064492  0.09659247  0.08082599     0.16500
C119        C  0.26372754  0.35802926  0.04735017    -0.01700
C120        C  0.27956398  0.37665103  0.08221404     0.06900
C121        C  0.26294221  0.38170886  0.10877015    -0.07600
C122        C  0.23091163  0.36774954  0.10180977     0.04400
C123        C  0.21495176  0.34910894  0.06692702    -0.14900
C124        C  0.23328162  0.34978688  0.53527738    -0.08200
C125        C  0.31341015  0.39094851  0.09211204     0.05300
C126        C  0.33268811  0.41355815  0.06877707    -0.09300
C127        C  0.36461350  0.42989229  0.07933159     0.00300
C128        C  0.37781782  0.42322548  0.11362661     0.00200
C129        C  0.35848079  0.40021400  0.13662285    -0.12900
C130        C  0.32652530  0.38411839  0.12617324     0.00600
C131        C  0.38285176  0.45516630  0.05622687     0.39900
C132        C  0.30754492  0.36096663  0.15108543     0.36800
C133        C  0.28275832  0.36175622  0.51480235     0.36300
C134        C  0.21493801  0.37132998  0.13208362     0.37000
N135        N  0.40072611  0.97920153  0.03460695    -0.43800
N136        N  0.29212712  0.34253531  0.17100205    -0.44200
N137        N  0.20214759  0.37406549  0.15642904    -0.41600
N138        N  0.29658290  0.35991251  0.49119936    -0.43000
H139        H  0.22229825  0.33750041  0.50698972     0.13200
H140        H  0.27505720  0.39607164  0.13556691     0.09700
H141        H  0.32262373  0.41940252  0.04311750     0.10700
H142        H  0.36830955  0.39511052  0.16312406     0.16500
C143        C  0.08244299  0.42086124  0.13074119    -0.01700
C144        C  0.07119051  0.40126378  0.09619287     0.06900
C145        C  0.04645583  0.39979725  0.07137467    -0.07600
C146        C  0.03380274  0.41874925  0.07947263     0.04400
C147        C  0.04622580  0.43980192  0.11307362    -0.14900
C148        C  0.06994461  0.43978636  0.13884785    -0.08200
C149        C  0.08549614  0.38272074  0.08520480     0.05300
C150        C  0.08487557  0.35984961  0.10950756    -0.09300
C151        C  0.09987368  0.34325045  0.10152086     0.00300
C152        C  0.11598839  0.34972544  0.06878360     0.00200
C153        C  0.11617343  0.37217446  0.04409619    -0.12900
C154        C  0.10079004  0.38848302  0.05180802     0.00600
C155        C  0.09895376  0.32022364  0.12778786     0.39900
C156        C  0.10825475  0.41752703  0.52225788     0.36600
C157        C  0.10745106  0.42279783  0.15783087     0.36300
C158        C  0.00791618  0.41549811  0.05309557     0.37000
N159        N  0.09803011  0.30164483  0.14869935    -0.43800
N160        N  0.11271899  0.43885645  0.50460683    -0.44200
N161        N  0.48561253  0.41176568  0.02505616    -0.41600
N162        N  0.12729996  0.42431662  0.17981371    -0.43000
H163        H  0.07945301  0.45518496  0.16522918     0.13200
H164        H  0.03724327  0.38398453  0.04535187     0.09700
H165        H  0.07290219  0.35523444  0.13499567     0.10700
H166        H  0.13258736  0.38091576  0.51403838     0.16500
C167        C  0.05498699  0.15562432  0.36475397    -0.01700
C168        C  0.05116379  0.16597359  0.32782867     0.06900
C169        C  0.03086685  0.14402412  0.29771194    -0.07600
C170        C  0.01558624  0.11196928  0.30336316     0.04400
C171        C  0.02053640  0.10136871  0.33984137    -0.14900
C172        C  0.03950540  0.12369434  0.37054187    -0.08200
C173        C  0.07012703  0.19918201  0.31931734     0.05300
C174        C  0.09244104  0.20675579  0.29406411    -0.09300
C175        C  0.11188873  0.23788045  0.28655598     0.00300
C176        C  0.10968434  0.26229459  0.30522327     0.00200
C177        C  0.08683399  0.25446696  0.32999375    -0.12900
C178        C  0.06687061  0.22327656  0.33660674     0.00600
C179        C  0.13260497  0.24377289  0.25796899     0.39900
C180        C  0.04251359  0.21638809  0.36008101     0.36600
C181        C  0.07649290  0.17706943  0.39631831     0.36300
C182        C  0.99687453  0.09055740  0.27042900     0.37000
N183        N  0.14878086  0.24795737  0.23460992    -0.43800
N184        N  0.02274554  0.21073067  0.37850819    -0.44200
N185        N  0.48741592  0.07297118  0.24282808    -0.41600
N186        N  0.09386902  0.19425590  0.42150641    -0.43000
H187        H  0.04351635  0.11609516  0.39881001     0.13200
H188        H  0.02785858  0.15191097  0.26926609     0.09700
H189        H  0.09461810  0.18820571  0.28009314     0.10700
H190        H  0.08448142  0.27280462  0.34420383     0.16500
C191        C  0.33425729  0.41897033  0.31293712    -0.01700
C192        C  0.31467957  0.40310361  0.34097475     0.06900
C193        C  0.32785847  0.40231438  0.37859532    -0.07600
C194        C  0.35998534  0.41740930  0.38863170     0.04400
C195        C  0.37957821  0.43353940  0.36056840    -0.14900
C196        C  0.36624530  0.43367236  0.32277608    -0.08200
C197        C  0.28048580  0.38723142  0.33143884     0.05300
C198        C  0.26571401  0.36227198  0.30276812    -0.09300
C199        C  0.23367773  0.34723403  0.29220991     0.00300
C200        C  0.21561252  0.35683587  0.31091865     0.00200
C201        C  0.23053463  0.38188306  0.33959030    -0.12900
C202        C  0.26256798  0.39712456  0.34977513     0.00600
C203        C  0.22038837  0.32326943  0.26066372     0.39900
C204        C  0.27660871  0.42356007  0.37814856     0.36600
C205        C  0.32214547  0.42178017  0.27434406     0.36300
C206        C  0.37213094  0.41529203  0.42752798     0.37000
N207        N  0.21039092  0.30437308  0.23500983    -0.43800
N208        N  0.28779195  0.44481284  0.40078825    -0.44200
N209        N  0.38181394  0.41346340  0.45867067    -0.41600
N210        N  0.31257504  0.42422372  0.24343879    -0.43000
H211        H  0.38089545  0.44629323  0.30104687     0.13200
H212        H  0.31295740  0.38985261  0.40018349     0.09700
H213        H  0.27937853  0.35477135  0.28821031     0.10700
H214        H  0.21706952  0.38963629  0.35413576     0.16500
C215        C  0.08154706  0.37892954  0.25613368    -0.01700
C216        C  0.08842742  0.40131791  0.28680607     0.06900
C217        C  0.11216472  0.40736548  0.31679022    -0.07600
C218        C  0.12834897  0.39082319  0.31736384     0.04400
C219        C  0.12106648  0.36779349  0.28719704    -0.14900
C220        C  0.09782770  0.36234449  0.25653106    -0.08200
C221        C  0.06976507  0.41699773  0.29059458     0.05300
C222        C  0.04036591  0.39978667  0.30203825    -0.09300
C223        C  0.02471050  0.41473040  0.31451789     0.00300
C224        C  0.03885897  0.44787041  0.31622835     0.00200
C225        C  0.06706728  0.46456548  0.30107254    -0.12900
C226        C  0.08245166  0.44945725  0.28835259     0.00600
C227        C  0.99484737  0.39523946  0.32672037     0.39900
C228        C  0.11163914  0.46778273  0.27397379     0.36600
C229        C  0.05791892  0.37271132  0.22413928     0.36300
C230        C  0.15084619  0.39646463  0.35063838     0.37000
N231        N  0.47777361  0.37963227  0.34155348    -0.43800
N232        N  0.13493112  0.48241596  0.26217258    -0.44200
N233        N  0.16881598  0.40092397  0.37732851    -0.41600
N234        N  0.03905668  0.36793475  0.19846651    -0.43000
H235        H  0.09208665  0.34476234  0.23320942     0.13200
H236        H  0.11725266  0.42429333  0.34069479     0.09700
H237        H  0.03029861  0.37467761  0.30317232     0.10700
H238        H  0.07801731  0.48977203  0.30086459     0.16500
C239        C  0.40010509  0.11978972  0.21802781    -0.01700
C240        C  0.39324046  0.09953029  0.18509260     0.06900
C241        C  0.36991879  0.09510608  0.15542346    -0.07600
C242        C  0.35389239  0.11150739  0.15762277     0.04400
C243        C  0.36149670  0.13274121  0.19002677    -0.14900
C244        C  0.38423458  0.13630628  0.22023833    -0.08200
C245        C  0.41064732  0.08322555  0.18034663     0.05300
C246        C  0.40282775  0.05583248  0.19932916    -0.09300
C247        C  0.41661912  0.03787451  0.19223219     0.00300
C248        C  0.43873474  0.04778014  0.16605860     0.00200
C249        C  0.44742865  0.07588414  0.14843289    -0.12900
C250        C  0.43346399  0.09366032  0.15525687     0.00600
C251        C  0.40603753  0.00839389  0.20976936     0.39900
C252        C  0.44216306  0.12193104  0.13539246     0.36600
C253        C  0.42398226  0.12472149  0.24909487     0.36300
C254        C  0.33098733  0.10725197  0.12549259     0.37000
N255        N  0.39733904  0.98471080  0.22370001    -0.43800
N256        N  0.44906233  0.14449485  0.11932258    -0.44200
N257        N  0.31255640  0.10359966  0.09974866    -0.41600
N258        N  0.44311229  0.12866931  0.27398880    -0.43000
H259        H  0.39012272  0.15268527  0.24510165     0.13200
H260        H  0.36475406  0.07930770  0.13016869     0.09700
H261        H  0.38507740  0.04790686  0.21844351     0.10700
H262        H  0.46458762  0.08347834  0.12857919     0.16500
C263        C  0.45837789  0.34925211  0.15401508    -0.01700
C264        C  0.44525863  0.33744253  0.18822687     0.06900
C265        C  0.44967239  0.35784778  0.21966034    -0.07600
C266        C  0.46449700  0.38990633  0.21608243     0.04400
C267        C  0.47504231  0.40160030  0.18052155    -0.14900
C268        C  0.47282107  0.38134185  0.15015572    -0.08200
C269        C  0.42316966  0.30427369  0.18994684     0.05300
C270        C  0.42992785  0.28711286  0.21735533    -0.09300
C271        C  0.40873361  0.25583852  0.22077459     0.00300
C272        C  0.38053522  0.24127663  0.19560671     0.00200
C273        C  0.37366340  0.25899792  0.16896232    -0.12900
C274        C  0.39437507  0.29043717  0.16661628     0.00600
C275        C  0.41633679  0.23969202  0.25087657     0.39900
C276        C  0.38502237  0.30830116  0.14128474     0.36600
C277        C  0.45626455  0.32880379  0.12221472     0.36300
C278        C  0.46539888  0.40968684  0.24776404     0.37000
N279        N  0.42270954  0.22689955  0.27491432    -0.43800
N280        N  0.37728681  0.32261821  0.12138160    -0.44200
N281        N  0.46552194  0.42488934  0.27352352    -0.41600
N282        N  0.45471352  0.31242382  0.09681390    -0.43000
H283        H  0.48126757  0.39048021  0.12299854     0.13200
H284        H  0.43957513  0.34858442  0.24597891     0.09700
H285        H  0.45168169  0.29831256  0.23629658     0.10700
H286        H  0.35218627  0.24825168  0.14951136     0.16500
C287        C  0.15594768  0.10620690  0.11938277    -0.01700
C288        C  0.17453292  0.10831582  0.15404611     0.06900
C289        C  0.16103365  0.09096819  0.18510465    -0.07600
C290        C  0.12946906  0.07057283  0.18161957     0.04400
C291        C  0.11088897  0.06726789  0.14628464    -0.14900
C292        C  0.12427645  0.08535373  0.11552628    -0.08200
C293        C  0.20838730  0.12588000  0.15790304     0.05300
C294        C  0.22433207  0.15011068  0.18722846    -0.09300
C295        C  0.25617346  0.16340725  0.19686946     0.00300
C296        C  0.27248611  0.15244185  0.17655422     0.00200
C297        C  0.25647259  0.12904929  0.14609402    -0.12900
C298        C  0.22467410  0.11546565  0.13698629     0.00600
C299        C  0.27098808  0.18684558  0.22906687     0.39900
C300        C  0.20909220  0.08944663  0.10797467     0.36600
C301        C  0.16890903  0.12544070  0.08787078     0.36300
C302        C  0.11718229  0.05194067  0.21392609     0.37000
N303        N  0.28280969  0.20578939  0.25469858    -0.43800
N304        N  0.19661722  0.06852200  0.08486288    -0.44200
N305        N  0.10767408  0.53678732  0.24698510    -0.41600
N306        N  0.17941549  0.14115883  0.06288913    -0.43000
H307        H  0.11000395  0.08327399  0.08866483     0.13200
H308        H  0.17544475  0.09249330  0.21167546     0.09700
H309        H  0.21160917  0.15766426  0.20373540     0.10700
H310        H  0.26878313  0.12082468  0.12981611     0.16500
C311        C  0.37203159  0.08530364  0.46157322    -0.01700
C312        C  0.40296561  0.09858485  0.47851555     0.06900
C313        C  0.41547729  0.12527451  0.50437265    -0.07600
C314        C  0.40001334  0.14315355  0.00312541     0.04400
C315        C  0.36788818  0.12798121  0.49172292    -0.14900
C316        C  0.35498553  0.10010775  0.46791102    -0.08200
C317        C  0.42291341  0.08658992  0.46560009     0.05300
C318        C  0.42941892  0.09046153  0.42709596    -0.09300
C319        C  0.44274060  0.07477099  0.41036922     0.00300
C320        C  0.45096625  0.05543752  0.43279394     0.00200
C321        C  0.44665857  0.05354896  0.47242015    -0.12900
C322        C  0.43219536  0.06847865  0.48868780     0.00600
C323        C  0.44613324  0.07791692  0.36955976     0.39900
C324        C  0.43610613  0.07795736  0.02130315     0.36600
C325        C  0.35748604  0.05676923  0.43667715     0.36300
C326        C  0.41050301  0.16694532  0.03458550     0.37000
N327        N  0.44814036  0.08045512  0.33668408    -0.43800
N328        N  0.43097184  0.07566953  0.05322338    -0.44200
N329        N  0.41880904  0.18587370  0.05996001    -0.41600
N330        N  0.34579422  0.03383350  0.41688135    -0.43000
H331        H  0.33186733  0.09048014  0.45266618     0.13200
H332        H  0.44170032  0.14001434  0.01220160     0.09700
H333        H  0.42231133  0.10442291  0.40928023     0.10700
H334        H  0.45245210  0.03853475  0.48993385     0.16500
C335        C  0.40084262  0.33983781  0.42307832    -0.01700
C336        C  0.41298765  0.32169204  0.44034111     0.06900
C337        C  0.44500890  0.33517966  0.44976282    -0.07600
C338        C  0.46492841  0.36639971  0.44307332     0.04400
C339        C  0.45279822  0.38511672  0.42702278    -0.14900
C340        C  0.42061940  0.37120292  0.41697408    -0.08200
C341        C  0.39319202  0.28823997  0.44752913     0.05300
C342        C  0.39609751  0.26552310  0.42650536    -0.09300
C343        C  0.38021582  0.23401725  0.43446428     0.00300
C344        C  0.36140573  0.22469124  0.46479918     0.00200
C345        C  0.35750350  0.24729814  0.48478436    -0.12900
C346        C  0.37310551  0.27883216  0.47633304     0.00600
C347        C  0.38317385  0.21171007  0.41040179     0.39900
C348        C  0.36883837  0.30119725  0.49834680     0.36600
C349        C  0.36833805  0.32656445  0.41009823     0.36300
C350        C  0.49758042  0.37829227  0.45300911     0.37000
N351        N  0.38560128  0.19391173  0.39104915    -0.43800
N352        N  0.36517181  0.31905715  0.51576538    -0.44200
N353        N  0.52511784  0.38758663  0.93992452    -0.41600
N354        N  0.34234899  0.31605160  0.39938428    -0.43000
H355        H  0.41068901  0.38476390  0.40398011     0.13200
H356        H  0.45662315  0.32175028  0.94788700     0.09700
H357        H  0.41104888  0.27252910  0.40385632     0.10700
H358        H  0.35621364  0.24414479  0.01718588     0.16500
C359        C  0.21947267  0.08243444  0.44464741    -0.01700
C360        C  0.20080259  0.08735664  0.46856420     0.06900
C361        C  0.21547113  0.11064676  0.49955414    -0.07600
C362        C  0.24770113  0.12949547  0.50581241     0.04400
C363        C  0.26609806  0.12418885  0.48207471    -0.14900
C364        C  0.25164435  0.10030227  0.45206694    -0.08200
C365        C  0.16619838  0.06957881  0.46041396     0.05300
C366        C  0.15049274  0.03670258  0.45540633    -0.09300
C367        C  0.11850370  0.01952935  0.44365444     0.00300
C368        C  0.10105122  0.03510286  0.43820879     0.00200
C369        C  0.11671621  0.06789868  0.44506492    -0.12900
C370        C  0.14871469  0.08506594  0.45547551     0.00600
C371        C  0.10474891  0.98627002  0.43512541     0.39900
C372        C  0.16474011  0.12180285  0.96495253     0.36600
C373        C  0.20635765  0.06054093  0.41080666     0.36300
C374        C  0.26134484  0.15427497  0.53644968     0.37000
N375        N  0.09373481  0.95966567  0.42773061    -0.43800
N376        N  0.17626761  0.14868589  0.96994954    -0.44200
N377        N  0.27698687  0.16837410  0.06608843    -0.41600
N378        N  0.19599321  0.04312316  0.38355732    -0.43000
H379        H  0.26562326  0.09638092  0.43332684     0.13200
H380        H  0.20165238  0.11451978  0.51853445     0.09700
H381        H  0.16346989  0.02438159  0.45946319     0.10700
H382        H  0.10409622  0.08057285  0.44079671     0.16500
C383        C  0.35018083  0.14517856  0.49205459     0.03500
C384        C  0.31826443  0.12883493  0.49378616    -0.12700
C385        C  0.30028679  0.14343849  0.48675330     0.01000
C386        C  0.31461529  0.17512851  0.47872709    -0.11200
C387        C  0.34649564  0.19189527  0.47667725     0.03500
C388        C  0.36406335  0.17682588  0.48403291    -0.10600
H389        H  0.30706158  0.10422184  0.49896280     0.09100
H390        H  0.30070546  0.18618124  0.47185192     0.06600
H391        H  0.38843511  0.18943416  0.48146201     0.06400
C392        C  0.35173641  0.15738861  0.69099228     0.03500
C393        C  0.31991795  0.14568761  0.68415440    -0.12700
C394        C  0.30795203  0.16617879  0.67966327     0.01000
C395        C  0.32817674  0.19847709  0.68317127    -0.11200
C396        C  0.35998691  0.21022853  0.69162046     0.03500
C397        C  0.37160425  0.18957840  0.69495921    -0.10600
H398        H  0.30457626  0.12064735  0.68148714     0.09100
H399        H  0.31927453  0.21449370  0.67860830     0.06600
H400        H  0.39629013  0.19856453  0.69890091     0.06400
C401        C  0.13815291  0.35217475  0.77925551     0.03500
C402        C  0.17029318  0.36492249  0.78474014    -0.12700
C403        C  0.18368370  0.34597897  0.79340302     0.01000
C404        C  0.16432623  0.31364993  0.79521005    -0.11200
C405        C  0.13210380  0.30044814  0.78876243     0.03500
C406        C  0.11924728  0.31986497  0.78061055    -0.10600
H407        H  0.18491627  0.38991650  0.78392205     0.09100
H408        H  0.17422050  0.29898546  0.80373968     0.06600
H409        H  0.09445473  0.31000909  0.77734221     0.06400
C410        C  0.13200893  0.33335742  0.55158094     0.03500
C411        C  0.11647267  0.30112612  0.54250914    -0.12700
C412        C  0.13281123  0.28502939  0.53943089     0.01000
C413        C  0.16514777  0.30175278  0.54353576    -0.11200
C414        C  0.18106131  0.33411755  0.55299086     0.03500
C415        C  0.16430766  0.34989193  0.55631238    -0.10600
H416        H  0.09153809  0.28831059  0.53992549     0.09100
H417        H  0.17792990  0.28937459  0.54152746     0.06600
H418        H  0.17639112  0.37480966  0.56409105     0.06400
O419        O  0.05289190  0.99410131  0.91426030    -0.79800
O420        O  0.45664302  0.02883590  0.87811012    -0.79800
O421        O  0.02956981  0.06728233  0.87042808    -0.79800
O422        O  0.46088862  0.47376659  0.96995319    -0.79800
O423        O  0.99030902  0.05128590  0.82467366    -0.79900
O424        O  0.01533732  0.49310445  0.96263363    -0.79800
O425        O  0.48593551  0.03349843  0.93311298    -0.79800
O426        O  0.05738267  0.04000543  0.91214731    -0.79800
C427        C  0.06926808  0.02333825  0.92207687     1.09900
C428        C  0.46916459  0.04192238  0.91209856     1.09800
C429        C  0.01369437  0.07345153  0.84516772     1.09900
C430        C  0.48853811  0.48289698  0.98366849     1.09800
O431        O  0.50246086  0.43595590  0.92613169    -0.79800
O432        O  0.48301109  0.99418688  0.79617363    -0.79900
O433        O  0.05357043  0.50270235  0.84402587    -0.79800
O434        O  0.42752453  0.46939266  0.90158104    -0.79800
O435        O  0.43227223  0.46160019  0.84175290    -0.79800
O436        O  0.01185343  0.45903059  0.85310157    -0.79800
O437        O  0.46000687  0.43837618  0.90957244    -0.79800
O438        O  0.02356592  0.03079008  0.79988607    -0.79800
Co439      Co  0.01151927  0.47620044  0.90477228     1.51500
Co440      Co  0.47064242  0.01025693  0.83834110     1.51700
Co441      Co  0.03763354  0.03332318  0.85783559     1.51600
Co442      Co  0.47227428  0.48535519  0.91988745     1.51500
O443        O  0.49539443  0.50209042  0.87411508    -1.41700
C444        C  0.47327233  0.42233700  0.92082369     1.09800
C445        C  0.49953429  0.50873923  0.77932721     1.09900
C446        C  0.03610305  0.47323103  0.83689473     1.09800
C447        C  0.41519299  0.45607803  0.86808737     1.09800
O448        O  0.06500991  0.04318414  0.66720270    -0.79800
O449        O  0.45359530  0.02646091  0.62243890    -0.79800
O450        O  0.03305627  0.04952546  0.58706201    -0.79800
O451        O  0.47564588  0.48266539  0.71732264    -0.79800
O452        O  0.98689025  0.03852457  0.56577439    -0.79900
O453        O  0.02944542  0.52630650  0.72309887    -0.79800
O454        O  0.46951608  0.02305780  0.68143308    -0.79800
O455        O  0.06611268  0.02610436  0.60873829    -0.79800
C456        C  0.07957110  0.04469944  0.63896360     1.09900
C457        C  0.45767260  0.03434844  0.65800303     1.09800
C458        C  0.01510611  0.05756193  0.57025126     1.09900
C459        C  0.49912764  0.50497959  0.73720246     1.09800
O460        O  0.50613284  0.45967170  0.69628653    -0.79800
O461        O  0.48053231  0.98214510  0.55183929    -0.79900
O462        O  0.01790515  0.46833907  0.59780258    -0.79800
O463        O  0.42189322  0.45549898  0.66346969    -0.79800
O464        O  0.43179821  0.45601147  0.60263539    -0.79800
O465        O  0.05459426  0.48584881  0.64619400    -0.79800
O466        O  0.46793322  0.44348990  0.64904874    -0.79800
O467        O  0.02618396  0.00263080  0.53894896    -0.79800
Co468      Co  0.03946691  0.50686558  0.68079186     1.51500
Co469      Co  0.47024701  0.00434302  0.59374897     1.51700
Co470      Co  0.02064431  0.00559302  0.59180595     1.51600
Co471      Co  0.46464317  0.48108577  0.65957275     1.51500
O472        O  0.50252979  0.50701384  0.63857581    -1.41700
C473        C  0.48349303  0.43769467  0.67522883     1.09800
C474        C  0.49837798  0.48791393  0.52593917     1.09900
C475        C  0.03946101  0.46633821  0.61741606     1.09800
C476        C  0.41218571  0.44774757  0.62749248     1.09800
C477        C  0.06998810  0.20233676  0.50947940    -0.01700
C478        C  0.07655806  0.18582584  0.53836175     0.06900
C479        C  0.10276546  0.20144525  0.56586580    -0.07600
C480        C  0.12221130  0.23354917  0.56565937     0.04400
C481        C  0.11561205  0.25048615  0.53704266    -0.14900
C482        C  0.08960742  0.23450966  0.50887144    -0.08200
C483        C  0.05718431  0.15194169  0.54020479     0.05300
C484        C  0.06893688  0.13277804  0.52950169    -0.09300
C485        C  0.05429225  0.10131690  0.53688618     0.00300
C486        C  0.02746913  0.08874227  0.55549197     0.00200
C487        C  0.01423555  0.10729099  0.56297550    -0.12900
C488        C  0.02914932  0.13899338  0.55612354     0.00600
C489        C  0.06716024  0.08240054  0.52499720     0.39900
C490        C  0.01663275  0.15820871  0.56813176     0.36600
C491        C  0.04322881  0.18664755  0.48056874     0.36300
C492        C  0.14769812  0.24859284  0.59644075     0.37000
N493        N  0.57626215  0.07040393  0.51063494    -0.43800
N494        N  0.00674688  0.17369226  0.57794597    -0.44200
N495        N  0.16816626  0.26056401  0.62103953    -0.41600
N496        N  0.02169996  0.17377149  0.45758981    -0.43000
H497        H  0.08427371  0.24734900  0.48695529     0.13200
H498        H  0.10767722  0.18849963  0.58805767     0.09700
H499        H  0.09025582  0.14275600  0.51661163     0.10700
H500        H  0.99310843  0.09743123  0.57638209     0.16500
C501        C  0.26541153  0.36421358  0.54401693    -0.01700
C502        C  0.27993718  0.38005005  0.58098953     0.06900
C503        C  0.26163590  0.38146105  0.60809405    -0.07600
C504        C  0.22954482  0.36666297  0.59956886     0.04400
C505        C  0.21508088  0.35081917  0.56269774    -0.14900
C506        C  0.23163727  0.34449912  0.03995017    -0.08200
C507        C  0.31404420  0.39555900  0.59205657     0.05300
C508        C  0.33347333  0.41793968  0.56849870    -0.09300
C509        C  0.36546912  0.43411406  0.57874433     0.00300
C510        C  0.37873445  0.42866659  0.61393432     0.00200
C511        C  0.35936776  0.40627414  0.63753334    -0.12900
C512        C  0.32738460  0.38943912  0.62664884     0.00600
C513        C  0.38389471  0.45736090  0.55348761     0.39900
C514        C  0.30879705  0.36567986  0.65120796     0.36800
C515        C  0.27973037  0.35152787  0.01953245     0.36300
C516        C  0.21191560  0.36668645  0.62991138     0.37000
N517        N  0.40212330  0.98532428  0.54443416    -0.43800
N518        N  0.29379794  0.34664776  0.67082018    -0.44200
N519        N  0.19777676  0.36653625  0.65427812    -0.41600
N520        N  0.29251681  0.34624485  0.99725106    -0.43000
H521        H  0.21949768  0.32996059  0.01328943     0.13200
H522        H  0.27246680  0.39390295  0.63633128     0.09700
H523        H  0.32355083  0.42334875  0.54233728     0.10700
H524        H  0.36925763  0.40180474  0.66448268     0.16500
C525        C  0.08547750  0.42392352  0.61997224    -0.01700
C526        C  0.07157340  0.40289868  0.58681748     0.06900
C527        C  0.04605930  0.40156809  0.56408556    -0.07600
C528        C  0.03463514  0.42145277  0.57346376     0.04400
C529        C  0.04898542  0.44322560  0.60638721    -0.14900
C530        C  0.07416063  0.44370926  0.62949543    -0.08200
C531        C  0.08440555  0.38314068  0.57485956     0.05300
C532        C  0.08036371  0.35775255  0.59646579    -0.09300
C533        C  0.09514950  0.34077715  0.58879048     0.00300
C534        C  0.11446108  0.34937845  0.55907722     0.00200
C535        C  0.11786696  0.37431330  0.53692575    -0.12900
C536        C  0.10294824  0.39113901  0.54454023     0.00600
C537        C  0.09129354  0.31563794  0.61296980     0.39900
C538        C  0.10144445  0.41130487  0.02541265     0.36600
C539        C  0.11192257  0.42613096  0.64411699     0.36300
C540        C  0.00806015  0.41853441  0.54898971     0.37000
N541        N  0.08815409  0.29541336  0.63219963    -0.43800
N542        N  0.10176823  0.42937654  0.00402723    -0.44200
N543        N  0.48611458  0.41168611  0.52841395    -0.41600
N544        N  0.13306732  0.42780339  0.66341208    -0.43000
H545        H  0.08550475  0.45993284  0.65499314     0.13200
H546        H  0.03519786  0.38504367  0.53881759     0.09700
H547        H  0.06633661  0.35180263  0.62006414     0.10700
H548        H  0.12826671  0.37684226  0.01871870     0.16500
C549        C  0.06092192  0.16150460  0.85991035    -0.01700
C550        C  0.05669680  0.17109924  0.82253183     0.06900
C551        C  0.03642733  0.14836140  0.79302807    -0.07600
C552        C  0.02103028  0.11651278  0.79992230     0.04400
C553        C  0.02514610  0.10687246  0.83740764    -0.14900
C554        C  0.04472977  0.12986633  0.86717368    -0.08200
C555        C  0.07475903  0.20430530  0.81289356     0.05300
C556        C  0.09388603  0.21152169  0.78338753    -0.09300
C557        C  0.11208700  0.24251839  0.77427090     0.00300
C558        C  0.11181855  0.26706336  0.79538976     0.00200
C559        C  0.09194734  0.25976697  0.82396638    -0.12900
C560        C  0.07325092  0.22876902  0.83248066     0.00600
C561        C  0.12960994  0.24839419  0.74191733     0.39900
C562        C  0.05211687  0.22264536  0.86064796     0.36600
C563        C  0.08356565  0.18321462  0.89048076     0.36300
C564        C  0.00351551  0.09426744  0.76714478     0.37000
N565        N  0.14320417  0.25289520  0.71555805    -0.43800
N566        N  0.03516813  0.21783635  0.88318515    -0.44200
N567        N  0.50241780  0.08218934  0.74257499    -0.41600
N568        N  0.10180203  0.20048815  0.91497535    -0.43000
H569        H  0.04867081  0.12294795  0.89593136     0.13200
H570        H  0.03348272  0.15545541  0.76404700     0.09700
H571        H  0.09464378  0.19284905  0.76746700     0.10700
H572        H  0.09115238  0.27842934  0.83986755     0.16500
C573        C  0.33622288  0.42029423  0.80937573    -0.01700
C574        C  0.31633904  0.40626425  0.83775387     0.06900
C575        C  0.32914937  0.40725728  0.87622003    -0.07600
C576        C  0.36120312  0.42248981  0.88680544     0.04400
C577        C  0.38114675  0.43703747  0.85845318    -0.14900
C578        C  0.36815826  0.43523832  0.81980424    -0.08200
C579        C  0.28220930  0.39041551  0.82762154     0.05300
C580        C  0.26766523  0.36469071  0.80002474    -0.09300
C581        C  0.23580038  0.34988807  0.78838847     0.00300
C582        C  0.21767610  0.36067321  0.80467195     0.00200
C583        C  0.23229055  0.38623002  0.83267173    -0.12900
C584        C  0.26415156  0.40106487  0.84419928     0.00600
C585        C  0.22263803  0.32450314  0.75863205     0.39900
C586        C  0.27783984  0.42765969  0.87233389     0.36600
C587        C  0.32447527  0.42083827  0.76961056     0.36300
C588        C  0.37283197  0.42219085  0.92669918     0.37000
N589        N  0.21235745  0.30415691  0.73477894    -0.43800
N590        N  0.28872682  0.44892542  0.89493662    -0.44200
N591        N  0.38203238  0.42178075  0.95866999    -0.41600
N592        N  0.31514114  0.42133547  0.73773986    -0.43000
H593        H  0.38300883  0.44649904  0.79770900     0.13200
H594        H  0.31400787  0.39607629  0.89806010     0.09700
H595        H  0.28138688  0.35634919  0.78718556     0.10700
H596        H  0.21872191  0.39462947  0.84574297     0.16500
C597        C  0.08561982  0.38535379  0.74653535    -0.01700
C598        C  0.09308282  0.40782541  0.77737523     0.06900
C599        C  0.11641689  0.41299182  0.80748114    -0.07600
C600        C  0.13169395  0.39561719  0.80803774     0.04400
C601        C  0.12422331  0.37288033  0.77742752    -0.14900
C602        C  0.10132948  0.36819580  0.74664159    -0.08200
C603        C  0.07513116  0.42412541  0.78194472     0.05300
C604        C  0.04559459  0.40709393  0.79303557    -0.09300
C605        C  0.03116648  0.42228725  0.80848439     0.00300
C606        C  0.04651603  0.45544075  0.81304392     0.00200
C607        C  0.07477619  0.47221249  0.79798145    -0.12900
C608        C  0.08914819  0.45690305  0.78284580     0.00600
C609        C  0.00149964  0.40293056  0.82120910     0.39900
C610        C  0.11902420  0.47532592  0.77015671     0.36600
C611        C  0.06171672  0.37928570  0.71498254     0.36300
C612        C  0.15307634  0.39982715  0.84203574     0.37000
N613        N  0.47412893  0.38390314  0.82859230    -0.43800
N614        N  0.14296650  0.49002823  0.75997225    -0.44200
N615        N  0.17000448  0.40307765  0.86944162    -0.41600
N616        N  0.04251901  0.37440083  0.68972868    -0.43000
H617        H  0.09528519  0.35065509  0.72314487     0.13200
H618        H  0.12168359  0.42971387  0.83172378     0.09700
H619        H  0.03467224  0.38181118  0.79216932     0.10700
H620        H  0.08668830  0.49753510  0.79997633     0.16500
C621        C  0.40328691  0.12391965  0.72135995    -0.01700
C622        C  0.39842876  0.10471783  0.68799026     0.06900
C623        C  0.37600485  0.10056677  0.65704125    -0.07600
C624        C  0.35957718  0.11663131  0.65801243     0.04400
C625        C  0.36498177  0.13650466  0.69102980    -0.14900
C626        C  0.38641396  0.13952138  0.72272390    -0.08200
C627        C  0.41734765  0.08977213  0.68376005     0.05300
C628        C  0.41613872  0.06748854  0.70956413    -0.09300
C629        C  0.43110905  0.05042579  0.70358086     0.00300
C630        C  0.44715505  0.05554062  0.67097240     0.00200
C631        C  0.44997996  0.07923839  0.64691614    -0.12900
C632        C  0.43530607  0.09637729  0.65296338     0.00600
C633        C  0.42819805  0.02681379  0.72994247     0.39900
C634        C  0.43847631  0.12004953  0.62658789     0.36600
C635        C  0.42667765  0.12940285  0.75338837     0.36300
C636        C  0.33918667  0.11419859  0.62368534     0.37000
N637        N  0.42601064  0.00806494  0.75127253    -0.43800
N638        N  0.44104288  0.13888347  0.60524802    -0.44200
N639        N  0.32295908  0.11238097  0.59616493    -0.41600
N640        N  0.44549663  0.13377257  0.77893347    -0.43000
H641        H  0.39080688  0.15509195  0.74791541     0.13200
H642        H  0.37223735  0.08565900  0.63140672     0.09700
H643        H  0.40251869  0.06260569  0.73347366     0.10700
H644        H  0.46280821  0.08356462  0.62239796     0.16500
C645        C  0.46236172  0.35401974  0.65938073    -0.01700
C646        C  0.44546493  0.34116082  0.69072349     0.06900
C647        C  0.44527984  0.36084066  0.72002245    -0.07600
C648        C  0.45931108  0.39294546  0.71658913     0.04400
C649        C  0.47359404  0.40541322  0.68329836    -0.14900
C650        C  0.47570487  0.38603292  0.65543149    -0.08200
C651        C  0.42401848  0.30750300  0.69056300     0.05300
C652        C  0.42727498  0.29104764  0.72180251    -0.09300
C653        C  0.40601947  0.25950410  0.72353320     0.00300
C654        C  0.38147158  0.24402969  0.69309449     0.00200
C655        C  0.37792308  0.26081793  0.66239753    -0.12900
C656        C  0.39858365  0.29246817  0.66130886     0.00600
C657        C  0.40919682  0.24392604  0.75744154     0.39900
C658        C  0.39244342  0.30932612  0.63087559     0.36600
C659        C  0.46532961  0.33471580  0.63035306     0.36300
C660        C  0.45619904  0.41195035  0.74581834     0.37000
N661        N  0.41167502  0.23145616  0.78464383    -0.43800
N662        N  0.38755478  0.32299401  0.60672257    -0.44200
N663        N  0.45320316  0.42647800  0.76970609    -0.41600
N664        N  0.46785232  0.31934158  0.60710418    -0.43000
H665        H  0.48684220  0.39572557  0.62999526     0.13200
H666        H  0.43238042  0.35089636  0.74422963     0.09700
H667        H  0.44618028  0.30301666  0.74506134     0.10700
H668        H  0.35899485  0.24915250  0.63910270     0.16500
C669        C  0.15702277  0.10693933  0.61639105    -0.01700
C670        C  0.17641008  0.10648348  0.64865364     0.06900
C671        C  0.16384598  0.08635961  0.67797287    -0.07600
C672        C  0.13224146  0.06625106  0.67529402     0.04400
C673        C  0.11274984  0.06628806  0.64280912    -0.14900
C674        C  0.12526801  0.08663779  0.61356712    -0.08200
C675        C  0.21013936  0.12493486  0.65173727     0.05300
C676        C  0.22573113  0.14983260  0.68020124    -0.09300
C677        C  0.25767326  0.16406673  0.68943308     0.00300
C678        C  0.27444274  0.15356723  0.66933617     0.00200
C679        C  0.25873057  0.12941891  0.63967873    -0.12900
C680        C  0.22676442  0.11476846  0.63118026     0.00600
C681        C  0.27218534  0.18761730  0.72154032     0.39900
C682        C  0.21129373  0.08786489  0.60346332     0.36600
C683        C  0.16918339  0.12820063  0.58635387     0.36300
C684        C  0.12056711  0.04458622  0.70511009     0.37000
N685        N  0.28384439  0.20649866  0.74725065    -0.43800
N686        N  0.19878389  0.06610106  0.58160326    -0.44200
N687        N  0.11932036  0.54727719  0.73654639    -0.41600
N688        N  0.17887035  0.14541115  0.56242149    -0.43000
H689        H  0.11023918  0.08684912  0.58884205     0.13200
H690        H  0.17893845  0.08579309  0.70249110     0.09700
H691        H  0.21268939  0.15702742  0.69660272     0.10700
H692        H  0.27138427  0.12133143  0.62388246     0.16500
C693        C  0.37967879  0.09452471  0.94513977    -0.01700
C694        C  0.40949309  0.10686348  0.96603091     0.06900
C695        C  0.41907481  0.13068916  0.99558771    -0.07600
C696        C  0.39809187  0.13983993  0.51143315     0.04400
C697        C  0.37099721  0.13209568  0.98042532    -0.14900
C698        C  0.36092779  0.10725281  0.95228972    -0.08200
C699        C  0.43097860  0.09589195  0.95551845     0.05300
C700        C  0.43756632  0.09794249  0.91703563    -0.09300
C701        C  0.45160708  0.08206690  0.90279383     0.00300
C702        C  0.46079979  0.06465406  0.92785831     0.00200
C703        C  0.45744486  0.06564428  0.96758616    -0.12900
C704        C  0.44224967  0.08072087  0.98141313     0.00600
C705        C  0.45421300  0.08255543  0.86164767     0.39900
C706        C  0.42449078  0.06257262  0.52777081     0.36600
C707        C  0.36780351  0.06883165  0.91589730     0.36300
C708        C  0.41162583  0.16672326  0.53906571     0.37000
N709        N  0.45552466  0.08274233  0.82850174    -0.43800
N710        N  0.41775490  0.05748144  0.55885031    -0.44200
N711        N  0.42238939  0.18819408  0.56133743    -0.41600
N712        N  0.35836450  0.04828359  0.89244839    -0.43000
H713        H  0.33870936  0.09845283  0.93477196     0.13200
H714        H  0.43910084  0.13527215  0.51802387     0.09700
H715        H  0.42969003  0.11028284  0.89722581     0.10700
H716        H  0.46441151  0.05254760  0.98724369     0.16500
C717        C  0.40257516  0.34473354  0.93253474    -0.01700
C718        C  0.41510562  0.32494342  0.94066025     0.06900
C719        C  0.44692548  0.33695432  0.94156811    -0.07600
C720        C  0.46642570  0.36835004  0.93511829     0.04400
C721        C  0.45397225  0.38840896  0.92677359    -0.14900
C722        C  0.42188730  0.37597342  0.92546686    -0.08200
C723        C  0.39555685  0.29156379  0.94810776     0.05300
C724        C  0.39124548  0.26838038  0.92031763    -0.09300
C725        C  0.37462729  0.23667902  0.92717669     0.00300
C726        C  0.36211814  0.22771790  0.96257288     0.00200
C727        C  0.36560029  0.25085692  0.98987861    -0.12900
C728        C  0.38231344  0.28261653  0.98299063     0.00600
C729        C  0.37062883  0.21373722  0.89741383     0.39900
C730        C  0.38677842  0.30571676  0.01273875     0.36600
C731        C  0.36994804  0.33346698  0.93117343     0.36300
C732        C  0.49900596  0.37907684  0.93766444     0.37000
N733        N  0.36739722  0.19538199  0.87351815    -0.43800
N734        N  0.39050202  0.32444256  0.03638983    -0.44200
N735        N  0.52375754  0.38775257  0.46084397    -0.41600
N736        N  0.34382661  0.32447772  0.93028837    -0.43000
H737        H  0.41171266  0.39076407  0.91935256     0.13200
H738        H  0.45450341  0.32113887  0.46245239     0.09700
H739        H  0.40117573  0.27512802  0.89334518     0.10700
H740        H  0.34290522  0.24045218  0.50780229     0.16500
C741        C  0.22009994  0.08873083  0.93782391    -0.01700
C742        C  0.20249062  0.09062888  0.96593963     0.06900
C743        C  0.21814297  0.11069218  0.99974796    -0.07600
C744        C  0.25047334  0.12891747  0.00532375     0.04400
C745        C  0.26788916  0.12614622  0.97765332    -0.14900
C746        C  0.25235971  0.10576621  0.94431761    -0.08200
C747        C  0.16789575  0.07289336  0.95945248     0.05300
C748        C  0.15233534  0.04026276  0.95146892    -0.09300
C749        C  0.12022590  0.02327432  0.94072734     0.00300
C750        C  0.10266410  0.03883260  0.93861916     0.00200
C751        C  0.11823211  0.07128333  0.94858030    -0.12900
C752        C  0.15030503  0.08826438  0.95854532     0.00600
C753        C  0.10642306  0.99034368  0.92968015     0.39900
C754        C  0.16313858  0.11874714  0.45843930     0.36600
C755        C  0.20565916  0.07128875  0.90072955     0.36300
C756        C  0.26521362  0.15065723  0.03919835     0.37000
N757        N  0.09533225  0.96400272  0.92043930    -0.43800
N758        N  0.17467683  0.14572615  0.46079031    -0.44200
N759        N  0.27228227  0.17437268  0.56070858    -0.41600
N760        N  0.19416049  0.05765674  0.87078256    -0.43000
H761        H  0.26554005  0.10417332  0.92240044     0.13200
H762        H  0.20502765  0.11256132  0.02149651     0.09700
H763        H  0.16553687  0.02812172  0.95226715     0.10700
H764        H  0.10547215  0.08389319  0.94700992     0.16500
C765        C  0.35381163  0.65187493  0.97984760     0.03500
C766        C  0.32205010  0.63570936  0.98223759    -0.12700
C767        C  0.30451974  0.65077969  0.97695673     0.01000
C768        C  0.31889585  0.68268271  0.97052153    -0.11200
C769        C  0.35077916  0.69941014  0.96923713     0.03500
C770        C  0.36803483  0.68388112  0.97347573    -0.10600
H771        H  0.31060029  0.61093524  0.98655597     0.09100
H772        H  0.30528748  0.69429333  0.96589117     0.06600
H773        H  0.39227047  0.69652037  0.97007586     0.06400
C774        C  0.35465091  0.65595189  0.20440171     0.03500
C775        C  0.32327958  0.64606436  0.20270095    -0.12700
C776        C  0.31214035  0.66699849  0.19539661     0.01000
C777        C  0.33335463  0.69883586  0.19323197    -0.11200
C778        C  0.36525487  0.70933291  0.19755500     0.03500
C779        C  0.37548937  0.68752633  0.20206449    -0.10600
H780        H  0.30730351  0.62154499  0.20498434     0.09100
H781        H  0.32512429  0.71522562  0.18712768     0.06600
H782        H  0.39967699  0.69490951  0.20198596     0.06400
C783        C  0.13873803  0.84798782  0.28239705     0.03500
C784        C  0.17074121  0.85981279  0.28789144    -0.12700
C785        C  0.18321210  0.84003074  0.29631692     0.01000
C786        C  0.16321958  0.80790131  0.29802770    -0.11200
C787        C  0.13110134  0.79555786  0.29162999     0.03500
C788        C  0.11913922  0.81575837  0.28335492    -0.10600
H789        H  0.18600405  0.88472892  0.28751024     0.09100
H790        H  0.17262657  0.79286635  0.30680925     0.06600
H791        H  0.09444036  0.80659970  0.27986060     0.06400
C792        C  0.13438889  0.83467680  0.04473799     0.03500
C793        C  0.11890307  0.80231970  0.03677441    -0.12700
C794        C  0.13525805  0.78629738  0.03302139     0.01000
C795        C  0.16759819  0.80319984  0.03643891    -0.11200
C796        C  0.18348246  0.83566769  0.04541468     0.03500
C797        C  0.16657684  0.85139925  0.04778399    -0.10600
H798        H  0.09404485  0.78941121  0.03552662     0.09100
H799        H  0.18042507  0.79087720  0.03444533     0.06600
H800        H  0.17850056  0.87646202  0.05437384     0.06400
O801        O  0.05007862  0.49029725  0.41567177    -0.79800
O802        O  0.44729436  0.51935772  0.37768022    -0.79800
O803        O  0.02743781  0.56411544  0.37307549    -0.79800
O804        O  0.46166995  0.97337085  0.47370088    -0.79800
O805        O  0.98739130  0.54843036  0.32851041    -0.79900
O806        O  0.00846247  0.98593913  0.45986080    -0.79800
O807        O  0.47745965  0.52425547  0.43189994    -0.79800
O808        O  0.05351523  0.53560135  0.41425233    -0.79800
C809        C  0.06608112  0.51952698  0.42348656     1.09900
C810        C  0.45971187  0.53194932  0.41191118     1.09800
C811        C  0.01109992  0.57036537  0.34866278     1.09900
C812        C  0.48983632  0.98361542  0.48592921     1.09800
O813        O  0.50113441  0.93425354  0.42840882    -0.79800
O814        O  0.47299854  0.48545924  0.29402513    -0.79900
O815        O  0.04657450  0.99548919  0.34188479    -0.79800
O816        O  0.42629290  0.96753633  0.40550630    -0.79800
O817        O  0.43021773  0.95927685  0.34537315    -0.79800
O818        O  0.00615265  0.95099978  0.35206526    -0.79800
O819        O  0.45859781  0.93661938  0.41285808    -0.79800
O820        O  0.02016061  0.52732249  0.30266755    -0.79800
Co821      Co  0.00479107  0.96824448  0.40299647     1.51500
Co822      Co  0.46115292  0.50121103  0.33704321     1.51700
Co823      Co  0.03428081  0.52934766  0.36011937     1.51600
Co824      Co  0.47128165  0.98373957  0.42256194     1.51500
O825        O  0.49301774  0.99965339  0.37559727    -1.41700
C826        C  0.47193805  0.92053430  0.42341926     1.09800
C827        C  0.49622259  0.00565397  0.28080422     1.09900
C828        C  0.03067296  0.96571357  0.33649568     1.09800
C829        C  0.41366446  0.95372123  0.37227087     1.09800
O830        O  0.06557181  0.54453256  0.17464037    -0.79800
O831        O  0.44382038  0.51583980  0.11967293    -0.79800
O832        O  0.03640241  0.55335869  0.09276371    -0.79800
O833        O  0.47430058  0.97963973  0.21805379    -0.79800
O834        O  0.99050831  0.54207893  0.06937395    -0.79900
O835        O  0.02032327  0.01695752  0.22100114    -0.79800
O836        O  0.45763581  0.50983989  0.17850590    -0.79800
O837        O  0.06942329  0.52995345  0.11616892    -0.79800
C838        C  0.08169212  0.54725960  0.14773503     1.09900
C839        C  0.44584158  0.52143543  0.15550434     1.09800
C840        C  0.01866901  0.56119672  0.07478016     1.09900
C841        C  0.49683936  0.00202915  0.23896030     1.09800
O842        O  0.50602690  0.95832565  0.19639374    -0.79800
O843        O  0.47607103  0.47709515  0.04853703    -0.79900
O844        O  0.01341907  0.96221177  0.09482529    -0.79800
O845        O  0.42270076  0.95424411  0.16294797    -0.79800
O846        O  0.43342802  0.95714378  0.10221105    -0.79800
O847        O  0.04867218  0.97908870  0.14496493    -0.79800
O848        O  0.46907594  0.94326140  0.14779333    -0.79800
O849        O  0.03130685  0.50775496  0.04354146    -0.79800
Co850      Co  0.03219539  0.99894726  0.17932801     1.51500
Co851      Co  0.46318227  0.49634029  0.09116592     1.51700
Co852      Co  0.02416872  0.50931526  0.09619735     1.51600
Co853      Co  0.46518156  0.98029365  0.16023719     1.51500
O854        O  0.50353981  0.00775867  0.14117181    -1.41700
C855        C  0.48421139  0.93677473  0.17374320     1.09800
C856        C  0.50327243  0.99294256  0.02831330     1.09900
C857        C  0.03462217  0.96017722  0.11530876     1.09800
C858        C  0.41347801  0.94799764  0.12678339     1.09800
C859        C  0.07168047  0.70348145  0.00476180    -0.01700
C860        C  0.07923378  0.68697264  0.03269911     0.06900
C861        C  0.10647970  0.70258655  0.05854736    -0.07600
C862        C  0.12582480  0.73466563  0.05802275     0.04400
C863        C  0.11812918  0.75168521  0.03063832    -0.14900
C864        C  0.09121164  0.73566570  0.00379163    -0.08200
C865        C  0.05954713  0.65328098  0.03616587     0.05300
C866        C  0.07141052  0.63365121  0.02801225    -0.09300
C867        C  0.05748195  0.60307872  0.03898049     0.00300
C868        C  0.03118304  0.59180286  0.05848655     0.00200
C869        C  0.01767778  0.61051269  0.06355826    -0.12900
C870        C  0.03188720  0.64137371  0.05290432     0.00600
C871        C  0.07077281  0.58384262  0.03011083     0.39900
C872        C  0.01892790  0.66091384  0.06178307     0.36600
C873        C  0.04403346  0.68782552  0.97721833     0.36300
C874        C  0.15222620  0.74954989  0.08759508     0.37000
N875        N  0.57286373  0.56773259  0.01612379    -0.43800
N876        N  0.00855613  0.67660217  0.06884164    -0.44200
N877        N  0.17340014  0.76131683  0.11126761    -0.41600
N878        N  0.02176494  0.67500475  0.95538569    -0.43000
H879        H  0.08508783  0.74848915  0.98266661     0.13200
H880        H  0.11216927  0.68968555  0.08005641     0.09700
H881        H  0.09245969  0.64275850  0.01465394     0.10700
H882        H  0.99709764  0.60163921  0.07775837     0.16500
C883        C  0.26831180  0.86277146  0.04328460    -0.01700
C884        C  0.28188408  0.88154767  0.07855773     0.06900
C885        C  0.26308115  0.88574344  0.10233532    -0.07600
C886        C  0.23118626  0.87111321  0.09206594     0.04400
C887        C  0.21745539  0.85241117  0.05661810    -0.14900
C888        C  0.24010577  0.85320978  0.54488896    -0.08200
C889        C  0.31567903  0.89746636  0.09089501     0.05300
C890        C  0.33538770  0.91906570  0.06690264    -0.09300
C891        C  0.36727375  0.93533808  0.07774778     0.00300
C892        C  0.38011796  0.92961419  0.11302540     0.00200
C893        C  0.36034350  0.90832300  0.13732787    -0.12900
C894        C  0.32838280  0.89244406  0.12673407     0.00600
C895        C  0.38588700  0.95955435  0.05365647     0.39900
C896        C  0.30916040  0.87140531  0.15333949     0.36800
C897        C  0.29021969  0.86540024  0.52614030     0.36300
C898        C  0.21308400  0.87462461  0.11943181     0.37000
N899        N  0.39736663  0.47559793  0.03792207    -0.43800
N900        N  0.29376761  0.85485562  0.17489615    -0.44200
N901        N  0.19855137  0.87747552  0.14126969    -0.41600
N902        N  0.30474442  0.86347418  0.50356554    -0.43000
H903        H  0.22957057  0.84075718  0.51659404     0.13200
H904        H  0.27338608  0.90034170  0.12930996     0.09700
H905        H  0.32569308  0.92391554  0.04007531     0.10700
H906        H  0.36985132  0.90433633  0.16492913     0.16500
C907        C  0.08248141  0.91977924  0.11907876    -0.01700
C908        C  0.07167450  0.90136229  0.08359478     0.06900
C909        C  0.04713976  0.90065828  0.05912393    -0.07600
C910        C  0.03381352  0.91867735  0.06903439     0.04400
C911        C  0.04525127  0.93800726  0.10419001    -0.14900
C912        C  0.06925496  0.93770075  0.12906357    -0.08200
C913        C  0.08614082  0.88309834  0.07158191     0.05300
C914        C  0.08433459  0.85878525  0.09397699    -0.09300
C915        C  0.09967940  0.84258174  0.08549480     0.00300
C916        C  0.11706826  0.85059073  0.05383950     0.00200
C917        C  0.11858475  0.87464698  0.03117127    -0.12900
C918        C  0.10318556  0.89082878  0.03968666     0.00600
C919        C  0.09829504  0.81879222  0.11071118     0.39900
C920        C  0.10728354  0.91582208  0.52517513     0.36600
C921        C  0.10787098  0.92153532  0.14518051     0.36300
C922        C  0.00875726  0.91686279  0.04231116     0.37000
N923        N  0.09715372  0.79972452  0.13089754    -0.43800
N924        N  0.10912647  0.93551931  0.50573501    -0.44200
N925        N  0.48938829  0.91547175  0.02930633    -0.41600
N926        N  0.12814656  0.92288629  0.16613157    -0.43000
H927        H  0.07834465  0.95205350  0.15628756     0.13200
H928        H  0.03856183  0.88614481  0.03201539     0.09700
H929        H  0.07140432  0.85293121  0.11866233     0.10700
H930        H  0.13637498  0.88315568  0.52019281     0.16500
C931        C  0.05481844  0.65837206  0.36500195    -0.01700
C932        C  0.05191281  0.66771758  0.32710546     0.06900
C933        C  0.03304537  0.64495191  0.29701466    -0.07600
C934        C  0.01821210  0.61315695  0.30367934     0.04400
C935        C  0.02199452  0.60362107  0.34131128    -0.14900
C936        C  0.03978326  0.62659579  0.37180454    -0.08200
C937        C  0.07094004  0.70051513  0.31719495     0.05300
C938        C  0.09246960  0.70674050  0.29110488    -0.09300
C939        C  0.11176644  0.73727382  0.28159426     0.00300
C940        C  0.11000459  0.76244364  0.29878379     0.00200
C941        C  0.08791058  0.75603756  0.32425261    -0.12900
C942        C  0.06826473  0.72542402  0.33320588     0.00600
C943        C  0.13225386  0.74181544  0.25306596     0.39900
C944        C  0.04523519  0.72013700  0.35828208     0.36600
C945        C  0.07475557  0.68072136  0.39675562     0.36300
C946        C  0.00128703  0.59091606  0.27071376     0.37000
N947        N  0.14835737  0.74496563  0.22993557    -0.43800
N948        N  0.02679916  0.71597899  0.37838236    -0.44200
N949        N  0.48126591  0.57322912  0.24422434    -0.41600
N950        N  0.09076762  0.69875218  0.42206869    -0.43000
H951        H  0.04293956  0.61964203  0.40081379     0.13200
H952        H  0.03092824  0.65203301  0.26779406     0.09700
H953        H  0.09427959  0.68758958  0.27821411     0.10700
H954        H  0.08618880  0.77508844  0.33758355     0.16500
C955        C  0.33428486  0.91580742  0.31516452    -0.01700
C956        C  0.31506179  0.89976367  0.34345368     0.06900
C957        C  0.32853596  0.90038965  0.38144569    -0.07600
C958        C  0.36062560  0.91724719  0.39164297     0.04400
C959        C  0.37979619  0.93367455  0.36334758    -0.14900
C960        C  0.36620545  0.93226328  0.32518245    -0.08200
C961        C  0.28093641  0.88287062  0.33374745     0.05300
C962        C  0.26705425  0.85844452  0.30432029    -0.09300
C963        C  0.23534735  0.84393691  0.29169598     0.00300
C964        C  0.21684971  0.85378566  0.30882881     0.00200
C965        C  0.23068032  0.87753791  0.33910755    -0.12900
C966        C  0.26231973  0.89205423  0.35163934     0.00600
C967        C  0.22287065  0.82013886  0.25997353     0.39900
C968        C  0.27518779  0.91701971  0.38199167     0.36600
C969        C  0.32181635  0.91695249  0.27600356     0.36300
C970        C  0.37320451  0.91664327  0.43092824     0.37000
N971        N  0.21340575  0.80118470  0.23443513    -0.43800
N972        N  0.28531256  0.93693949  0.40641553    -0.44200
N973        N  0.38328476  0.91603793  0.46236871    -0.41600
N974        N  0.31191672  0.91795192  0.24462595    -0.43000
H975        H  0.38053073  0.94497674  0.30318848     0.13200
H976        H  0.31390670  0.88776352  0.40320349     0.09700
H977        H  0.28122851  0.85119082  0.29054227     0.10700
H978        H  0.21666800  0.88492096  0.35296760     0.16500
C979        C  0.08641596  0.88169154  0.25132138    -0.01700
C980        C  0.09389205  0.90383584  0.28255108     0.06900
C981        C  0.11790348  0.90941175  0.31183451    -0.07600
C982        C  0.13353879  0.89235939  0.31145858     0.04400
C983        C  0.12549078  0.86935825  0.28089311    -0.14900
C984        C  0.10221430  0.86467411  0.25067180    -0.08200
C985        C  0.07496707  0.91891717  0.28827514     0.05300
C986        C  0.04656789  0.90121797  0.30206089    -0.09300
C987        C  0.03064452  0.91542511  0.31572581     0.00300
C988        C  0.04322529  0.94834268  0.31574500     0.00200
C989        C  0.07070540  0.96558655  0.29909138    -0.12900
C990        C  0.08655280  0.95120078  0.28557594     0.00600
C991        C  0.00228097  0.89545846  0.33110583     0.39900
C992        C  0.11502314  0.97002998  0.26979463     0.36600
C993        C  0.06240611  0.87587363  0.22003570     0.36300
C994        C  0.15595348  0.89723237  0.34450001     0.37000
N995        N  0.47032878  0.88031623  0.33131478    -0.43800
N996        N  0.13776578  0.98499142  0.25692164    -0.44200
N997        N  0.17379800  0.90115607  0.37111706    -0.41600
N998        N  0.04323662  0.87134595  0.19490131    -0.43000
H999        H  0.09586727  0.84714337  0.22705126     0.13200
H1000       H  0.12340553  0.92611833  0.33618193     0.09700
H1001       H  0.03756709  0.87630325  0.30404759     0.10700
H1002       H  0.08062857  0.99065894  0.29801063     0.16500
C1003       C  0.40406813  0.61880440  0.22964728    -0.01700
C1004       C  0.39263856  0.59503059  0.19953774     0.06900
C1005       C  0.36720336  0.58960120  0.17304229    -0.07600
C1006       C  0.35381751  0.60853913  0.17488624     0.04400
C1007       C  0.36564052  0.63305012  0.20441343    -0.14900
C1008       C  0.39041034  0.63759903  0.23200296    -0.08200
C1009       C  0.40893781  0.57800202  0.19162229     0.05300
C1010       C  0.40228713  0.55065247  0.21022871    -0.09300
C1011       C  0.41450456  0.53192405  0.19936943     0.00300
C1012       C  0.43388576  0.54098841  0.16978302     0.00200
C1013       C  0.44092873  0.56869085  0.15190637    -0.12900
C1014       C  0.42852658  0.58716971  0.16243748     0.00600
C1015       C  0.40539768  0.50276389  0.21724136     0.39900
C1016       C  0.43522026  0.61480571  0.14193143     0.36600
C1017       C  0.43060333  0.62520760  0.25703205     0.36300
C1018       C  0.32988726  0.60386647  0.14403088     0.37000
N1019       N  0.39793744  0.47930944  0.23139014    -0.43800
N1020       N  0.44034822  0.63681435  0.12534770    -0.44200
N1021       N  0.31087804  0.59982719  0.11892097    -0.41600
N1022       N  0.45192902  0.63038714  0.27889895    -0.43000
H1023       H  0.39969654  0.65650524  0.25455919     0.13200
H1024       H  0.35889006  0.57153531  0.14952266     0.09700
H1025       H  0.38668953  0.54341308  0.23213542     0.10700
H1026       H  0.45583620  0.57564382  0.12929561     0.16500
C1027       C  0.46767876  0.85421468  0.15583236    -0.01700
C1028       C  0.44950125  0.83964157  0.18550693     0.06900
C1029       C  0.44597743  0.85773977  0.21385074    -0.07600
C1030       C  0.45849639  0.88985963  0.21144022     0.04400
C1031       C  0.47452274  0.90408050  0.17995410    -0.14900
C1032       C  0.47934951  0.88624052  0.15266797    -0.08200
C1033       C  0.43036864  0.80548288  0.18510761     0.05300
C1034       C  0.43625727  0.79004437  0.21571008    -0.09300
C1035       C  0.41535803  0.75887031  0.22053328     0.00300
C1036       C  0.38800033  0.74256257  0.19402416     0.00200
C1037       C  0.38261201  0.75803845  0.16284690    -0.12900
C1038       C  0.40339876  0.78931143  0.15837783     0.00600
C1039       C  0.42194988  0.74491258  0.25410505     0.39900
C1040       C  0.39565884  0.80488346  0.12762705     0.36600
C1041       C  0.47491731  0.83692002  0.12889184     0.36300
C1042       C  0.45244829  0.90712295  0.23989960     0.37000
N1043       N  0.42753735  0.73392263  0.28099717    -0.43800
N1044       N  0.38939631  0.81747390  0.10321518    -0.44200
N1045       N  0.44720013  0.92048104  0.26289466    -0.41600
N1046       N  0.48136567  0.82335812  0.10770017    -0.43000
H1047       H  0.49165856  0.89714340  0.12856046     0.13200
H1048       H  0.43203920  0.84646086  0.23677638     0.09700
H1049       H  0.45666046  0.80282002  0.23676652     0.10700
H1050       H  0.36196643  0.74575188  0.14208274     0.16500
C1051       C  0.16212175  0.60604167  0.12938152    -0.01700
C1052       C  0.17949292  0.60778785  0.16503995     0.06900
C1053       C  0.16453302  0.59055136  0.19543110    -0.07600
C1054       C  0.13262920  0.57105813  0.19048537     0.04400
C1055       C  0.11515726  0.56881165  0.15450374    -0.14900
C1056       C  0.13014750  0.58648495  0.12427550    -0.08200
C1057       C  0.21351828  0.62474185  0.17010226     0.05300
C1058       C  0.22976733  0.65205393  0.19497410    -0.09300
C1059       C  0.26197864  0.66686487  0.20314964     0.00300
C1060       C  0.27830660  0.65423747  0.18603508     0.00200
C1061       C  0.26172431  0.62723315  0.16048097    -0.12900
C1062       C  0.22972934  0.61229655  0.15280436     0.00600
C1063       C  0.27731671  0.69367741  0.23091070     0.39900
C1064       C  0.21391847  0.58322883  0.12885425     0.36600
C1065       C  0.17677920  0.62401634  0.09776687     0.36300
C1066       C  0.11876758  0.55207426  0.22189638     0.37000
N1067       N  0.28952035  0.71517325  0.25319842    -0.43800
N1068       N  0.20125228  0.55982748  0.10994079    -0.44200
N1069       N  0.10738286  0.03704120  0.23981193    -0.41600
N1070       N  0.18877943  0.63863006  0.07267488    -0.43000
H1071       H  0.11689279  0.58496468  0.09669822     0.13200
H1072       H  0.17800296  0.59145033  0.22259664     0.09700
H1073       H  0.21715984  0.66129027  0.20881156     0.10700
H1074       H  0.27377930  0.61721912  0.14705242     0.16500
C1075       C  0.36824216  0.58000765  0.45357143    -0.01700
C1076       C  0.39874593  0.59328997  0.47217656     0.06900
C1077       C  0.41063182  0.62021960  0.49739554    -0.07600
C1078       C  0.40064590  0.64508196  0.99965432     0.04400
C1079       C  0.36414245  0.62402460  0.47936620    -0.14900
C1080       C  0.35149596  0.59564993  0.45661826    -0.08200
C1081       C  0.41941776  0.58192962  0.46033432     0.05300
C1082       C  0.42615426  0.58572021  0.42195036    -0.09300
C1083       C  0.44073431  0.57105702  0.40616181     0.00300
C1084       C  0.45003793  0.55290271  0.42947062     0.00200
C1085       C  0.44554578  0.55123427  0.46900704    -0.12900
C1086       C  0.42984508  0.56514883  0.48436294     0.00600
C1087       C  0.44403972  0.57375715  0.36528975     0.39900
C1088       C  0.42880661  0.57104812  0.02207599     0.36600
C1089       C  0.35393309  0.55053479  0.43058184     0.36300
C1090       C  0.41475217  0.67224823  0.02685731     0.37000
N1091       N  0.44586716  0.57577220  0.33233339    -0.43800
N1092       N  0.42393409  0.56863969  0.05410947    -0.44200
N1093       N  0.42601395  0.69407410  0.04859726    -0.41600
N1094       N  0.34247672  0.52675304  0.41257762    -0.43000
H1095       H  0.32886985  0.58615638  0.43997647     0.13200
H1096       H  0.44026573  0.63833641  0.00858653     0.09700
H1097       H  0.41829521  0.59880169  0.40348534     0.10700
H1098       H  0.45214388  0.53707371  0.48714211     0.16500
C1099       C  0.40086223  0.84091097  0.42511397    -0.01700
C1100       C  0.41345335  0.82188453  0.43773137     0.06900
C1101       C  0.44558227  0.83521924  0.44510760    -0.07600
C1102       C  0.46519543  0.86703139  0.44070167     0.04400
C1103       C  0.45267491  0.88632435  0.42814933    -0.14900
C1104       C  0.42036868  0.87263827  0.42045795    -0.08200
C1105       C  0.39384696  0.78800872  0.44332963     0.05300
C1106       C  0.39495425  0.76581916  0.41873315    -0.09300
C1107       C  0.37860704  0.73384189  0.42457406     0.00300
C1108       C  0.36117461  0.72351677  0.45611504     0.00200
C1109       C  0.35932486  0.74565734  0.48002391    -0.12900
C1110       C  0.37540699  0.77763466  0.47384867     0.00600
C1111       C  0.37935078  0.71198710  0.39713194     0.39900
C1112       C  0.37323466  0.79947170  0.49969151     0.36600
C1113       C  0.36803362  0.82839872  0.41608478     0.36300
C1114       C  0.49792378  0.87897697  0.44977625     0.37000
N1115       N  0.37976953  0.69437652  0.37511989    -0.43800
N1116       N  0.37133707  0.81709957  0.52001525    -0.44200
N1117       N  0.53076422  0.89207185  0.94551141    -0.41600
N1118       N  0.34176220  0.81863188  0.40885581    -0.43000
H1119       H  0.41009243  0.88671993  0.41062616     0.13200
H1120       H  0.46159172  0.82671225  0.95166420     0.09700
H1121       H  0.40868879  0.77355771  0.39486556     0.10700
H1122       H  0.38714920  0.74752728  0.02125803     0.16500
C1123       C  0.21551637  0.58178651  0.43768332    -0.01700
C1124       C  0.19900140  0.58810566  0.46366134     0.06900
C1125       C  0.21551328  0.61252452  0.49295545    -0.07600
C1126       C  0.24773095  0.63060938  0.49629948     0.04400
C1127       C  0.26406011  0.62393325  0.47054995    -0.14900
C1128       C  0.24768359  0.59934940  0.44165134    -0.08200
C1129       C  0.16456135  0.57056559  0.45899363     0.05300
C1130       C  0.14880895  0.53768172  0.45748257    -0.09300
C1131       C  0.11676796  0.52030483  0.44676043     0.00300
C1132       C  0.09952358  0.53585773  0.43921853     0.00200
C1133       C  0.11528101  0.56880306  0.44319372    -0.12900
C1134       C  0.14729318  0.58608031  0.45233291     0.00600
C1135       C  0.10270572  0.48681193  0.44076340     0.39900
C1136       C  0.16841715  0.62124490  0.97635915     0.36600
C1137       C  0.19992379  0.55842678  0.40547826     0.36300
C1138       C  0.26364184  0.65570306  0.52644549     0.37000
N1139       N  0.09118989  0.45999356  0.43499391    -0.43800
N1140       N  0.17975993  0.64771182  0.98495298    -0.44200
N1141       N  0.28552619  0.64515305  0.07621969    -0.41600
N1142       N  0.18727075  0.53971146  0.37970329    -0.43000
H1143       H  0.26010140  0.59434874  0.42146350     0.13200
H1144       H  0.20315846  0.61763628  0.51303431     0.09700
H1145       H  0.16184499  0.52550282  0.46270555     0.10700
H1146       H  0.10276290  0.58143361  0.43724848     0.16500
C1147       C  0.34701859  0.64184366  0.47745371     0.03500
C1148       C  0.31508924  0.62619502  0.47855610    -0.12700
C1149       C  0.29812637  0.64192250  0.47297572     0.01000
C1150       C  0.31337003  0.67393397  0.46670111    -0.11200
C1151       C  0.34526098  0.68999059  0.46493624     0.03500
C1152       C  0.36188487  0.67377856  0.47049226    -0.10600
H1153       H  0.30320844  0.60149868  0.48326811     0.09100
H1154       H  0.30023637  0.68600036  0.46156264     0.06600
H1155       H  0.38633470  0.68592036  0.46830490     0.06400
C1156       C  0.35304893  0.66076983  0.67388718     0.03500
C1157       C  0.32150433  0.65049345  0.66903676    -0.12700
C1158       C  0.31088204  0.67211329  0.66650647     0.01000
C1159       C  0.33214809  0.70412275  0.67046358    -0.11200
C1160       C  0.36383851  0.71451426  0.67653317     0.03500
C1161       C  0.37407703  0.69268556  0.67718010    -0.10600
H1162       H  0.30525360  0.62566167  0.66686852     0.09100
H1163       H  0.32405682  0.72092384  0.66826104     0.06600
H1164       H  0.39849729  0.70046655  0.67935229     0.06400
C1165       C  0.14350173  0.85552344  0.78552398     0.03500
C1166       C  0.17582437  0.86957560  0.79168068    -0.12700
C1167       C  0.19027961  0.85148778  0.79965246     0.01000
C1168       C  0.17197039  0.81900446  0.80120826    -0.11200
C1169       C  0.13966864  0.80467228  0.79487137     0.03500
C1170       C  0.12570988  0.82305838  0.78632126    -0.10600
H1171       H  0.18968903  0.89473578  0.79169955     0.09100
H1172       H  0.18282521  0.80514951  0.80954284     0.06600
H1173       H  0.10081637  0.81227766  0.78269795     0.06400
C1174       C  0.13870024  0.83747059  0.55969917     0.03500
C1175       C  0.12305144  0.80533148  0.55017457    -0.12700
C1176       C  0.13910826  0.78906845  0.54583074     0.01000
C1177       C  0.17147833  0.80565756  0.55033441    -0.11200
C1178       C  0.18751726  0.83787734  0.56104863     0.03500
C1179       C  0.17094138  0.85383342  0.56464373    -0.10600
H1180       H  0.09811831  0.79275878  0.54767297     0.09100
H1181       H  0.18421837  0.79339330  0.54711991     0.06600
H1182       H  0.18308627  0.87868071  0.57288908     0.06400
O1183       O  0.05772350  0.49597078  0.91602314    -0.79800
O1184       O  0.44883044  0.52310820  0.87689885    -0.79800
O1185       O  0.03713832  0.57109309  0.87309034    -0.79800
O1186       O  0.46777467  0.97950453  0.97193618    -0.79800
O1187       O  0.99806175  0.55581530  0.82706682    -0.79900
O1188       O  0.00944623  0.98940548  0.95959621    -0.79800
O1189       O  0.47829248  0.52770406  0.93163236    -0.79800
O1190       O  0.06312012  0.54222423  0.91476337    -0.79800
C1191       C  0.07444977  0.52503299  0.92423159     1.09900
C1192       C  0.46111959  0.53581709  0.91104882     1.09800
C1193       C  0.02145747  0.57760410  0.84795123     1.09900
C1194       C  0.49510773  0.98759356  0.98594473     1.09800
O1195       O  0.50851455  0.94013298  0.92780303    -0.79800
O1196       O  0.47572314  0.49040437  0.79384312    -0.79900
O1197       O  0.04880366  0.00072690  0.84184728    -0.79800
O1198       O  0.43480538  0.97536444  0.90385149    -0.79800
O1199       O  0.43890139  0.96655901  0.84401761    -0.79800
O1200       O  0.00788925  0.95625024  0.85073271    -0.79800
O1201       O  0.46647385  0.94356209  0.91185322    -0.79800
O1202       O  0.03027575  0.53431234  0.80271133    -0.79800
Co1203     Co  0.00641902  0.97280901  0.90213625     1.51500
Co1204     Co  0.46329561  0.50561085  0.83660250     1.51700
Co1205     Co  0.04394446  0.53633772  0.86047835     1.51600
Co1206     Co  0.47940513  0.99078356  0.92197801     1.51500
O1207       O  0.50242392  0.00670358  0.87620135    -1.41700
C1208       C  0.47939156  0.92700600  0.92215348     1.09800
C1209       C  0.50690353  0.01232698  0.78157207     1.09900
C1210       C  0.03249578  0.97106531  0.83539475     1.09800
C1211       C  0.42215123  0.96162982  0.87065391     1.09800
O1212       O  0.07020402  0.54857869  0.66875198    -0.79800
O1213       O  0.44777505  0.52095431  0.61564372    -0.79800
O1214       O  0.03688880  0.55539320  0.58837702    -0.79800
O1215       O  0.48318427  0.98614593  0.71992784    -0.79800
O1216       O  0.99039819  0.54423379  0.56923174    -0.79900
O1217       O  0.02286189  0.02221890  0.72025270    -0.79800
O1218       O  0.46181057  0.51771509  0.67558195    -0.79800
O1219       O  0.07041330  0.53264715  0.60912729    -0.79800
C1220       C  0.08409094  0.55111929  0.63951689     1.09900
C1221       C  0.45055828  0.52876337  0.65095030     1.09800
C1222       C  0.01853186  0.56315675  0.57215983     1.09900
C1223       C  0.50658330  0.00845393  0.73960338     1.09800
O1224       O  0.51329116  0.96388875  0.69535755    -0.79800
O1225       O  0.47768859  0.47708887  0.54939419    -0.79900
O1226       O  0.01336552  0.96231430  0.59665343    -0.79800
O1227       O  0.42910608  0.96104037  0.66944342    -0.79800
O1228       O  0.43682899  0.96149130  0.60772590    -0.79800
O1229       O  0.04847132  0.97978269  0.64702859    -0.79800
O1230       O  0.47394085  0.94886644  0.64991075    -0.79800
O1231       O  0.02836025  0.50784989  0.53995073    -0.79800
Co1232     Co  0.03347384  0.00182696  0.67983706     1.51500
Co1233     Co  0.46577513  0.49905614  0.58947861     1.51700
Co1234     Co  0.02472455  0.51146413  0.59336984     1.51600
Co1235     Co  0.47128920  0.98633478  0.66307554     1.51500
O1236       O  0.50835334  0.01223851  0.64062333    -1.41700
C1237       C  0.49012094  0.94245406  0.67432627     1.09800
C1238       C  0.50054334  0.99226101  0.52743361     1.09900
C1239       C  0.03418988  0.96025149  0.61803354     1.09800
C1240       C  0.41826515  0.95346372  0.63380832     1.09800
C1241       C  0.07348438  0.70865915  0.51137554    -0.01700
C1242       C  0.08024220  0.68976094  0.53610230     0.06900
C1243       C  0.10781627  0.70302608  0.56154390    -0.07600
C1244       C  0.12818460  0.73509781  0.56403329     0.04400
C1245       C  0.12126667  0.75448664  0.53990804    -0.14900
C1246       C  0.09419242  0.74072035  0.51302634    -0.08200
C1247       C  0.05933749  0.65595946  0.53672490     0.05300
C1248       C  0.06968176  0.63582396  0.52483165    -0.09300
C1249       C  0.05519525  0.60475625  0.53395396     0.00300
C1250       C  0.03020436  0.59367556  0.55579909     0.00200
C1251       C  0.01778357  0.61284728  0.56406793    -0.12900
C1252       C  0.03225820  0.64405003  0.55476699     0.00600
C1253       C  0.06645770  0.58474282  0.52074150     0.39900
C1254       C  0.02001554  0.66370921  0.56603417     0.36600
C1255       C  0.04530345  0.69572089  0.48474956     0.36300
C1256       C  0.15475879  0.74731810  0.59338232     0.37000
N1257       N  0.57842662  0.56755081  0.51662116    -0.43800
N1258       N  0.00993373  0.67928652  0.57479700    -0.44200
N1259       N  0.17601745  0.75676020  0.61690786    -0.41600
N1260       N  0.02259752  0.68523330  0.46362769    -0.43000
H1261       H  0.08868834  0.75526470  0.49417271     0.13200
H1262       H  0.11290555  0.68827159  0.58056431     0.09700
H1263       H  0.09007215  0.64485395  0.51010438     0.10700
H1264       H  0.99796316  0.60403266  0.57975017     0.16500
C1265       C  0.27217925  0.86796666  0.55433862    -0.01700
C1266       C  0.28609834  0.88434778  0.59112977     0.06900
C1267       C  0.26736914  0.88545905  0.61771101    -0.07600
C1268       C  0.23534218  0.87013604  0.60863727     0.04400
C1269       C  0.22143527  0.85428247  0.57161652    -0.14900
C1270       C  0.23635919  0.84840433  0.03263347    -0.08200
C1271       C  0.32010088  0.90104305  0.60216880     0.05300
C1272       C  0.33865163  0.92396428  0.57851650    -0.09300
C1273       C  0.37062304  0.94081376  0.58805015     0.00300
C1274       C  0.38472219  0.93481891  0.62199281     0.00200
C1275       C  0.36620667  0.91234922  0.64612213    -0.12900
C1276       C  0.33415153  0.89546009  0.63652330     0.00600
C1277       C  0.38812678  0.96548308  0.56376959     0.39900
C1278       C  0.31626621  0.87262110  0.66247380     0.36800
C1279       C  0.28667126  0.85742349  0.01803047     0.36300
C1280       C  0.21723160  0.86967033  0.63860952     0.37000
N1281       N  0.39861303  0.47590762  0.53317388    -0.43800
N1282       N  0.30191526  0.85458076  0.68351315    -0.44200
N1283       N  0.20272967  0.86910008  0.66272482    -0.41600
N1284       N  0.30159548  0.85337513  0.99792650    -0.43000
H1285       H  0.22611750  0.83394609  0.00556157     0.13200
H1286       H  0.27781229  0.89816457  0.64588567     0.09700
H1287       H  0.32800699  0.92922177  0.55288898     0.10700
H1288       H  0.37680177  0.90798236  0.67254666     0.16500
C1289       C  0.08354330  0.92173485  0.62392022    -0.01700
C1290       C  0.07133166  0.90073361  0.59070810     0.06900
C1291       C  0.04530957  0.89759994  0.56705863    -0.07600
C1292       C  0.03190183  0.91589621  0.57556445     0.04400
C1293       C  0.04465785  0.93764837  0.60854378    -0.14900
C1294       C  0.07003455  0.93955097  0.63276935    -0.08200
C1295       C  0.08644849  0.88284637  0.58007525     0.05300
C1296       C  0.08512797  0.85935043  0.60369738    -0.09300
C1297       C  0.10216378  0.84448769  0.59760059     0.00300
C1298       C  0.12094589  0.85319966  0.56737059     0.00200
C1299       C  0.12208651  0.87654102  0.54353821    -0.12900
C1300       C  0.10489340  0.89131576  0.54959904     0.00600
C1301       C  0.10086028  0.82115315  0.62356427     0.39900
C1302       C  0.10610633  0.91597704  0.01617741     0.36600
C1303       C  0.11090128  0.92653674  0.64844400     0.36300
C1304       C  0.00542667  0.91191867  0.54984318     0.37000
N1305       N  0.09983902  0.80240476  0.64423904    -0.43800
N1306       N  0.10847332  0.93613992  0.99730678    -0.44200
N1307       N  0.48826701  0.91689542  0.52874405    -0.41600
N1308       N  0.13287765  0.93051339  0.66801288    -0.43000
H1309       H  0.08024243  0.95583234  0.65833031     0.13200
H1310       H  0.03579205  0.88116738  0.54163776     0.09700
H1311       H  0.07134505  0.85321289  0.62755897     0.10700
H1312       H  0.13197951  0.88088771  0.00692803     0.16500
C1313       C  0.06646843  0.66531325  0.86596782    -0.01700
C1314       C  0.06428300  0.67544212  0.82836966     0.06900
C1315       C  0.04599750  0.65317064  0.79750838    -0.07600
C1316       C  0.03085416  0.62118374  0.80324864     0.04400
C1317       C  0.03291624  0.61099513  0.84092828    -0.14900
C1318       C  0.05032268  0.63346775  0.87204035    -0.08200
C1319       C  0.08304913  0.70866998  0.81975059     0.05300
C1320       C  0.10424006  0.71606159  0.79285009    -0.09300
C1321       C  0.12263091  0.74698432  0.78383523     0.00300
C1322       C  0.12028591  0.77131253  0.80235055     0.00200
C1323       C  0.09882977  0.76381673  0.82896092    -0.12900
C1324       C  0.08005867  0.73286490  0.83740610     0.00600
C1325       C  0.14256102  0.75279367  0.75421943     0.39900
C1326       C  0.05732021  0.72651569  0.86333933     0.36600
C1327       C  0.08718828  0.68672258  0.89805558     0.36300
C1328       C  0.01639855  0.59953511  0.76930423     0.37000
N1329       N  0.15818254  0.75697927  0.73015073    -0.43800
N1330       N  0.03912827  0.72158067  0.88411988    -0.44200
N1331       N  0.49132046  0.57596404  0.74099273    -0.41600
N1332       N  0.10398843  0.70381298  0.92369177    -0.43000
H1333       H  0.05265612  0.62600261  0.90097989     0.13200
H1334       H  0.04478376  0.66076885  0.76839217     0.09700
H1335       H  0.10634495  0.69751897  0.77873207     0.10700
H1336       H  0.09671034  0.78228554  0.84325036     0.16500
C1337       C  0.34248654  0.92789234  0.81461513    -0.01700
C1338       C  0.32307496  0.91228357  0.84297746     0.06900
C1339       C  0.33653033  0.91173950  0.88053153    -0.07600
C1340       C  0.36869797  0.92693763  0.89020545     0.04400
C1341       C  0.38807124  0.94280877  0.86178551    -0.14900
C1342       C  0.37449601  0.94263550  0.82407194    -0.08200
C1343       C  0.28882167  0.89613975  0.83345274     0.05300
C1344       C  0.27458082  0.87256153  0.80300728    -0.09300
C1345       C  0.24278588  0.85811128  0.79120843     0.00300
C1346       C  0.22431949  0.86683486  0.81036227     0.00200
C1347       C  0.23849230  0.89016492  0.84118858    -0.12900
C1348       C  0.27037085  0.90470929  0.85291951     0.00600
C1349       C  0.23003084  0.83545509  0.75819062     0.39900
C1350       C  0.28363049  0.92873897  0.88448012     0.36600
C1351       C  0.33017096  0.93017002  0.77588089     0.36300
C1352       C  0.38109042  0.92519677  0.92913971     0.37000
N1353       N  0.22019173  0.81749687  0.73151223    -0.43800
N1354       N  0.29420312  0.94787063  0.90992161    -0.44200
N1355       N  0.39094442  0.92364885  0.96031411    -0.41600
N1356       N  0.32031434  0.93196848  0.74483300    -0.43000
H1357       H  0.38896964  0.95502855  0.80206894     0.13200
H1358       H  0.32183728  0.89934270  0.90233450     0.09700
H1359       H  0.28851985  0.86575097  0.78792975     0.10700
H1360       H  0.22454371  0.89688546  0.85636886     0.16500
C1361       C  0.08835429  0.88576066  0.75297379    -0.01700
C1362       C  0.09409033  0.90696185  0.78465724     0.06900
C1363       C  0.11671588  0.91183560  0.81566799    -0.07600
C1364       C  0.13336652  0.89584249  0.81587116     0.04400
C1365       C  0.12797497  0.87477163  0.78415948    -0.14900
C1366       C  0.10536638  0.86992306  0.75286200    -0.08200
C1367       C  0.07585773  0.92316736  0.78808812     0.05300
C1368       C  0.04526312  0.90584169  0.79562380    -0.09300
C1369       C  0.02965105  0.92071470  0.80850711     0.00300
C1370       C  0.04481763  0.95382550  0.81400264     0.00200
C1371       C  0.07455033  0.97097750  0.80283090    -0.12900
C1372       C  0.09007179  0.95599448  0.79025139     0.00600
C1373       C  0.99881221  0.90108316  0.81775133     0.39900
C1374       C  0.12113103  0.97474252  0.78118422     0.36600
C1375       C  0.06508072  0.87985256  0.72061027     0.36300
C1376       C  0.15427612  0.89979267  0.85028480     0.37000
N1377       N  0.47908103  0.88692352  0.83545778    -0.43800
N1378       N  0.14600974  0.98961922  0.77383674    -0.44200
N1379       N  0.17089717  0.90272083  0.87789124    -0.41600
N1380       N  0.04634077  0.87512641  0.69478899    -0.43000
H1381       H  0.10070605  0.85341253  0.72865148     0.13200
H1382       H  0.12065865  0.92752099  0.84053555     0.09700
H1383       H  0.03418621  0.88053600  0.79379715     0.10700
H1384       H  0.08655421  0.99629228  0.80589035     0.16500
C1385       C  0.40026341  0.62302673  0.70649065    -0.01700
C1386       C  0.39275868  0.60143201  0.67479892     0.06900
C1387       C  0.37067046  0.59780956  0.64375007    -0.07600
C1388       C  0.35666706  0.61633573  0.64329902     0.04400
C1389       C  0.36458375  0.63845646  0.67475515    -0.14900
C1390       C  0.38600707  0.64128478  0.70636298    -0.08200
C1391       C  0.40986065  0.58456679  0.67163617     0.05300
C1392       C  0.40386164  0.55934713  0.69451065    -0.09300
C1393       C  0.41831020  0.54158266  0.68990332     0.00300
C1394       C  0.43923437  0.54954966  0.66235250     0.00200
C1395       C  0.44633071  0.57577621  0.64117605    -0.12900
C1396       C  0.43160880  0.59316357  0.64525509     0.00600
C1397       C  0.40964261  0.51414110  0.71150556     0.39900
C1398       C  0.43827280  0.61899202  0.62115960     0.36600
C1399       C  0.42371994  0.62796005  0.73818679     0.36300
C1400       C  0.33604336  0.61376083  0.60917008     0.37000
N1401       N  0.40261799  0.49207573  0.72867684    -0.43800
N1402       N  0.44325948  0.63952868  0.60172248    -0.44200
N1403       N  0.31958039  0.61176732  0.58182375    -0.41600
N1404       N  0.44263491  0.63183163  0.76335846    -0.43000
H1405       H  0.39225020  0.65846810  0.73039722     0.13200
H1406       H  0.36537849  0.58138651  0.61914881     0.09700
H1407       H  0.38708694  0.55292264  0.71484295     0.10700
H1408       H  0.46252274  0.58187332  0.62023562     0.16500
C1409       C  0.46674336  0.85935230  0.65030403    -0.01700
C1410       C  0.45137442  0.84525896  0.68231590     0.06900
C1411       C  0.45275587  0.86374441  0.71430346    -0.07600
C1412       C  0.46702388  0.89609323  0.71324843     0.04400
C1413       C  0.48047351  0.90993692  0.68000988    -0.14900
C1414       C  0.48075732  0.89160645  0.64920425    -0.08200
C1415       C  0.42944947  0.81173128  0.68027700     0.05300
C1416       C  0.43413736  0.79332678  0.70770111    -0.09300
C1417       C  0.41260524  0.76174070  0.70788895     0.00300
C1418       C  0.38634543  0.74815436  0.67938533     0.00200
C1419       C  0.38159807  0.76695415  0.65240487    -0.12900
C1420       C  0.40250519  0.79868481  0.65326923     0.00600
C1421       C  0.41745636  0.74432250  0.73857297     0.39900
C1422       C  0.39513683  0.81774390  0.62757120     0.36600
C1423       C  0.46675664  0.84115938  0.61730829     0.36300
C1424       C  0.46421774  0.91397045  0.74430183     0.37000
N1425       N  0.42148252  0.73048932  0.76320855    -0.43800
N1426       N  0.38937172  0.83333990  0.60747723    -0.44200
N1427       N  0.46138286  0.92785430  0.76918280    -0.41600
N1428       N  0.46676650  0.82676893  0.59067914    -0.43000
H1429       H  0.49041919  0.90232586  0.62341475     0.13200
H1430       H  0.44056288  0.85274064  0.73867726     0.09700
H1431       H  0.45436356  0.80384280  0.72937462     0.10700
H1432       H  0.36146753  0.75688450  0.63060440     0.16500
C1433       C  0.15908492  0.61310390  0.61066359    -0.01700
C1434       C  0.17968484  0.61632613  0.64368117     0.06900
C1435       C  0.16850895  0.59970965  0.67619730    -0.07600
C1436       C  0.13726754  0.57892901  0.67573135     0.04400
C1437       C  0.11674306  0.57436582  0.64191275    -0.14900
C1438       C  0.12776863  0.59176145  0.60978770    -0.08200
C1439       C  0.21327697  0.63428624  0.64430629     0.05300
C1440       C  0.23039890  0.65869646  0.67313897    -0.09300
C1441       C  0.26231028  0.67174755  0.68069658     0.00300
C1442       C  0.27754591  0.66089594  0.65815459     0.00200
C1443       C  0.26039071  0.63738231  0.62813547    -0.12900
C1444       C  0.22843151  0.62359217  0.62158441     0.00600
C1445       C  0.27829449  0.69401966  0.71390294     0.39900
C1446       C  0.21156208  0.59656138  0.59418935     0.36600
C1447       C  0.16950317  0.63169784  0.57785381     0.36300
C1448       C  0.12728330  0.56131773  0.70948335     0.37000
N1449       N  0.29105330  0.71174022  0.74063519    -0.43800
N1450       N  0.19797177  0.57466793  0.57264890    -0.44200
N1451       N  0.11112627  0.02711826  0.72884001    -0.41600
N1452       N  0.17771026  0.64683415  0.55170484    -0.43000
H1453       H  0.11190288  0.58876995  0.58417999     0.13200
H1454       H  0.18446822  0.60215034  0.70152396     0.09700
H1455       H  0.21853060  0.66615223  0.69138868     0.10700
H1456       H  0.27191220  0.62887140  0.61074999     0.16500
C1457       C  0.37365410  0.59043850  0.94977707    -0.01700
C1458       C  0.40406015  0.60242125  0.96831562     0.06900
C1459       C  0.41699441  0.62920764  0.99402270    -0.07600
C1460       C  0.39330250  0.63526333  0.50174387     0.04400
C1461       C  0.37098522  0.63429375  0.97889905    -0.14900
C1462       C  0.35760360  0.60648033  0.95487882    -0.08200
C1463       C  0.42352157  0.58948323  0.95670752     0.05300
C1464       C  0.42884475  0.59097508  0.91778756    -0.09300
C1465       C  0.44234160  0.57492520  0.90275700     0.00300
C1466       C  0.45215011  0.55776969  0.92741120     0.00200
C1467       C  0.44919968  0.55849297  0.96734112    -0.12900
C1468       C  0.43452781  0.57381263  0.98199509     0.00600
C1469       C  0.44404093  0.57528644  0.86137200     0.39900
C1470       C  0.42224324  0.55951129  0.52349713     0.36600
C1471       C  0.35871441  0.56206720  0.92447623     0.36300
C1472       C  0.40558610  0.66176048  0.52976354     0.37000
N1473       N  0.44463035  0.57539881  0.82807178    -0.43800
N1474       N  0.41572751  0.55452611  0.55467718    -0.44200
N1475       N  0.41514807  0.68282733  0.55245586    -0.41600
N1476       N  0.34679697  0.53936260  0.90421543    -0.43000
H1477       H  0.33486693  0.59775601  0.93880695     0.13200
H1478       H  0.43378885  0.63005839  0.51260143     0.09700
H1479       H  0.42073698  0.60339668  0.89843504     0.10700
H1480       H  0.45632941  0.54527616  0.98656114     0.16500
C1481       C  0.40782449  0.84914932  0.92793312    -0.01700
C1482       C  0.42011843  0.82967949  0.93931649     0.06900
C1483       C  0.45211454  0.84179825  0.94330512    -0.07600
C1484       C  0.47200036  0.87306552  0.93704607     0.04400
C1485       C  0.45979284  0.89300069  0.92654634    -0.14900
C1486       C  0.42758387  0.88036613  0.92156253    -0.08200
C1487       C  0.40025972  0.79670802  0.94787734     0.05300
C1488       C  0.38062428  0.77464980  0.91747645    -0.09300
C1489       C  0.36360209  0.74291341  0.92411029     0.00300
C1490       C  0.36621925  0.73291995  0.96168509     0.00200
C1491       C  0.38523894  0.75509183  0.99228062    -0.12900
C1492       C  0.40203294  0.78682666  0.98568740     0.00600
C1493       C  0.34463299  0.72087111  0.89167063     0.39900
C1494       C  0.42082477  0.80906795  0.01801498     0.36600
C1495       C  0.37511955  0.83803490  0.92396282     0.36300
C1496       C  0.50463842  0.88369583  0.94176960     0.37000
N1497       N  0.32947832  0.70321699  0.86562681    -0.43800
N1498       N  0.43595547  0.82737485  0.04345995    -0.44200
N1499       N  0.52413671  0.88843731  0.45716302    -0.41600
N1500       N  0.34895406  0.82938705  0.92075668    -0.43000
H1501       H  0.41762358  0.89501692  0.91326956     0.13200
H1502       H  0.45539304  0.82068524  0.45482499     0.09700
H1503       H  0.37925532  0.78214956  0.88834440     0.10700
H1504       H  0.34581697  0.73800599  0.50410970     0.16500
C1505       C  0.22208995  0.60042865  0.93260404    -0.01700
C1506       C  0.20634748  0.59257960  0.96566903     0.06900
C1507       C  0.22307305  0.60449103  0.00279532    -0.07600
C1508       C  0.25514946  0.62392308  0.00712231     0.04400
C1509       C  0.27068158  0.63196498  0.97395183    -0.14900
C1510       C  0.25399437  0.62007362  0.93697530    -0.08200
C1511       C  0.17223608  0.57382305  0.96130374     0.05300
C1512       C  0.15759211  0.54206153  0.94852631    -0.09300
C1513       C  0.12554321  0.52497606  0.93799872     0.00300
C1514       C  0.10753320  0.53976376  0.94072925     0.00200
C1515       C  0.12239854  0.57128525  0.95513432    -0.12900
C1516       C  0.15431494  0.58828704  0.96519697     0.00600
C1517       C  0.11241020  0.49330461  0.92148747     0.39900
C1518       C  0.16193705  0.61967294  0.45168568     0.36600
C1519       C  0.20587402  0.58900273  0.89384036     0.36300
C1520       C  0.27180103  0.63555675  0.04560214     0.37000
N1521       N  0.10205291  0.46802840  0.90796107    -0.43800
N1522       N  0.17360835  0.64656436  0.45100901    -0.44200
N1523       N  0.27667748  0.67603804  0.55028547    -0.41600
N1524       N  0.19283815  0.57975007  0.86281520    -0.43000
H1525       H  0.26602296  0.62596308  0.91148807     0.13200
H1526       H  0.21104243  0.59869288  0.02826845     0.09700
H1527       H  0.17145903  0.53103880  0.94494567     0.10700
H1528       H  0.10923140  0.58330174  0.95678671     0.16500
C1529       C  0.85388082  0.15159630  0.97815856     0.03500
C1530       C  0.82231715  0.13578568  0.98184006    -0.12700
C1531       C  0.80505944  0.15122695  0.97772733     0.01000
C1532       C  0.81962753  0.18317657  0.97140192    -0.11200
C1533       C  0.85120926  0.19933571  0.96799024     0.03500
C1534       C  0.86806150  0.18338363  0.97087205    -0.10600
H1535       H  0.81078771  0.11104238  0.98632446     0.09100
H1536       H  0.80624120  0.19507171  0.96760839     0.06600
H1537       H  0.89203047  0.19561504  0.96611659     0.06400
C1538       C  0.85391862  0.15536406  0.20309704     0.03500
C1539       C  0.82256214  0.14525684  0.20214838    -0.12700
C1540       C  0.81125974  0.16614612  0.19592975     0.01000
C1541       C  0.83223522  0.19806825  0.19420956    -0.11200
C1542       C  0.86413992  0.20877724  0.19727576     0.03500
C1543       C  0.87449786  0.18697269  0.20039028    -0.10600
H1544       H  0.80671244  0.12067772  0.20427098     0.09100
H1545       H  0.82371051  0.21434901  0.18935757     0.06600
H1546       H  0.89854966  0.19433970  0.19914822     0.06400
C1547       C  0.63828098  0.34814590  0.28268387     0.03500
C1548       C  0.67028241  0.36000136  0.28838178    -0.12700
C1549       C  0.68279990  0.34018734  0.29650796     0.01000
C1550       C  0.66270533  0.30798023  0.29781941    -0.11200
C1551       C  0.63057561  0.29564291  0.29110977     0.03500
C1552       C  0.61867021  0.31589776  0.28303024    -0.10600
H1553       H  0.68546876  0.38495706  0.28830674     0.09100
H1554       H  0.67198829  0.29282961  0.30650836     0.06600
H1555       H  0.59396992  0.30675390  0.27929561     0.06400
C1556       C  0.63479722  0.33562708  0.04598763     0.03500
C1557       C  0.61893337  0.30326314  0.03813608    -0.12700
C1558       C  0.63489782  0.28688189  0.03406361     0.01000
C1559       C  0.66724655  0.30341073  0.03725980    -0.11200
C1560       C  0.68355182  0.33589593  0.04621780     0.03500
C1561       C  0.66698717  0.35200355  0.04875768    -0.10600
H1562       H  0.59409402  0.29063446  0.03724194     0.09100
H1563       H  0.67974885  0.29076532  0.03512391     0.06600
H1564       H  0.67916604  0.37708068  0.05524859     0.06400
O1565       O  0.55031793  0.99131361  0.41484701    -0.79800
O1566       O  0.94717994  0.01855326  0.37667910    -0.79800
O1567       O  0.52665957  0.06440022  0.37194730    -0.79800
O1568       O  0.96105538  0.47227379  0.47392882    -0.79800
O1569       O  0.48661758  0.04828708  0.32729127    -0.79900
O1570       O  0.50881499  0.48689076  0.46018307    -0.79800
O1571       O  0.97713939  0.02368360  0.43122379    -0.79800
O1572       O  0.55363031  0.03661793  0.41319121    -0.79800
C1573       C  0.56617438  0.02055224  0.42270069     1.09900
C1574       C  0.95940265  0.03124025  0.41090450     1.09800
C1575       C  0.51017511  0.07040304  0.34743806     1.09900
C1576       C  0.98921847  0.48267229  0.48636271     1.09800
O1577       O  0.00058184  0.43354661  0.42906455    -0.79800
O1578       O  0.97337385  0.98455770  0.29365894    -0.79900
O1579       O  0.54621891  0.49593073  0.34180073    -0.79800
O1580       O  0.92604397  0.46704511  0.40547005    -0.79800
O1581       O  0.93024684  0.45930887  0.34529012    -0.79800
O1582       O  0.50582857  0.45154545  0.35239892    -0.79800
O1583       O  0.95817255  0.43595928  0.41268574    -0.79800
O1584       O  0.51949990  0.02740999  0.30179645    -0.79800
Co1585     Co  0.50479991  0.46895259  0.40335601     1.51500
Co1586     Co  0.96124905  0.00039634  0.33641302     1.51700
Co1587     Co  0.53400944  0.02993881  0.35916859     1.51600
Co1588     Co  0.97095319  0.48301664  0.42292878     1.51500
O1589       O  0.99306219  0.49927393  0.37625448    -1.41700
C1590       C  0.97140138  0.41983630  0.42351757     1.09800
C1591       C  0.99678954  0.50588077  0.28144267     1.09900
C1592       C  0.53022971  0.46614776  0.33657442     1.09800
C1593       C  0.91355758  0.45344368  0.37209065     1.09800
O1594       O  0.56475000  0.04510864  0.17439487    -0.79800
O1595       O  0.94484787  0.01637974  0.11928531    -0.79800
O1596       O  0.53561481  0.05399439  0.09297023    -0.79800
O1597       O  0.97464370  0.48023805  0.21855827    -0.79800
O1598       O  0.48969717  0.04221091  0.06911580    -0.79900
O1599       O  0.51965636  0.51769311  0.22119753    -0.79800
O1600       O  0.95914811  0.01103684  0.17821848    -0.79800
O1601       O  0.56903319  0.03098067  0.11596324    -0.79800
C1602       C  0.58106167  0.04811329  0.14766032     1.09900
C1603       C  0.94721589  0.02245406  0.15509239     1.09800
C1604       C  0.51777053  0.06162941  0.07486223     1.09900
C1605       C  0.99739480  0.50240219  0.23951374     1.09800
O1606       O  0.00587169  0.45825146  0.19718620    -0.79800
O1607       O  0.97641041  0.97686288  0.04796275    -0.79900
O1608       O  0.51328446  0.46271457  0.09547531    -0.79800
O1609       O  0.92296411  0.45510268  0.16322136    -0.79800
O1610       O  0.93374808  0.45729859  0.10258755    -0.79800
O1611       O  0.54856923  0.48009035  0.14562891    -0.79800
O1612       O  0.96908044  0.44356769  0.14846742    -0.79800
O1613       O  0.53120333  0.00885302  0.04341271    -0.79800
Co1614     Co  0.53187900  0.49982350  0.17987511     1.51500
Co1615     Co  0.96384004  0.99638884  0.09075536     1.51700
Co1616     Co  0.52382156  0.01000537  0.09592664     1.51600
Co1617     Co  0.96559139  0.48084532  0.16070348     1.51500
O1618       O  0.00407602  0.50773919  0.14152579    -1.41700
C1619       C  0.98396609  0.43685805  0.17448987     1.09800
C1620       C  0.00330665  0.49236062  0.02850829     1.09900
C1621       C  0.53456873  0.46094075  0.11614388     1.09800
C1622       C  0.91376446  0.44834118  0.12708709     1.09800
C1623       C  0.57063063  0.20435833  0.00567983    -0.01700
C1624       C  0.57797258  0.18763293  0.03351062     0.06900
C1625       C  0.60520857  0.20302131  0.05941849    -0.07600
C1626       C  0.62480536  0.23505437  0.05897837     0.04400
C1627       C  0.61738184  0.25227745  0.03163899    -0.14900
C1628       C  0.59041771  0.23651140  0.00480314    -0.08200
C1629       C  0.55823726  0.15388738  0.03661895     0.05300
C1630       C  0.57016645  0.13436131  0.02824571    -0.09300
C1631       C  0.55639346  0.10377120  0.03914537     0.00300
C1632       C  0.53011694  0.09230982  0.05871548     0.00200
C1633       C  0.51654331  0.11092829  0.06402855    -0.12900
C1634       C  0.53061098  0.14182749  0.05345173     0.00600
C1635       C  0.56992683  0.08476434  0.03029282     0.39900
C1636       C  0.51753453  0.16123897  0.06243833     0.36600
C1637       C  0.54291817  0.18896820  0.97821429     0.36300
C1638       C  0.65122552  0.24969598  0.08854918     0.37000
N1639       N  0.07388042  0.06693061  0.01600294    -0.43800
N1640       N  0.50707218  0.17683607  0.06953773    -0.44200
N1641       N  0.67241259  0.26127117  0.11222049    -0.41600
N1642       N  0.52055878  0.17635183  0.95650171    -0.43000
H1643       H  0.58447264  0.24950953  0.98375997     0.13200
H1644       H  0.61073913  0.18996176  0.08084706     0.09700
H1645       H  0.59121326  0.14359569  0.01486313     0.10700
H1646       H  0.49603627  0.10196038  0.07835307     0.16500
C1647       C  0.76812931  0.36131827  0.04400836    -0.01700
C1648       C  0.78210364  0.38083257  0.07868074     0.06900
C1649       C  0.76363494  0.38588802  0.10216307    -0.07600
C1650       C  0.73171505  0.37142232  0.09224266     0.04400
C1651       C  0.71759584  0.35225770  0.05718055    -0.14900
C1652       C  0.73999388  0.35326270  0.54576749    -0.08200
C1653       C  0.81595626  0.39662700  0.09079662     0.05300
C1654       C  0.83568630  0.41741743  0.06613452    -0.09300
C1655       C  0.86756924  0.43403725  0.07710001     0.00300
C1656       C  0.88041105  0.42950974  0.11324271     0.00200
C1657       C  0.86062280  0.40886635  0.13805963    -0.12900
C1658       C  0.82867854  0.39259838  0.12727740     0.00600
C1659       C  0.88615717  0.45741875  0.05209842     0.39900
C1660       C  0.80946664  0.37213072  0.15432050     0.36800
C1661       C  0.79022841  0.36433331  0.52857412     0.36300
C1662       C  0.71398239  0.37540087  0.11977284     0.37000
N1663       N  0.89673384  0.97314392  0.03569007    -0.43800
N1664       N  0.79404627  0.35598932  0.17615203    -0.44200
N1665       N  0.69975925  0.37856076  0.14182054    -0.41600
N1666       N  0.80495008  0.36168932  0.50685108    -0.43000
H1667       H  0.72965041  0.34039885  0.51766666     0.13200
H1668       H  0.77421302  0.40095380  0.12874965     0.09700
H1669       H  0.82600393  0.42147235  0.03870931     0.10700
H1670       H  0.87009909  0.40568129  0.16620024     0.16500
C1671       C  0.58380560  0.42205672  0.11964920    -0.01700
C1672       C  0.57213572  0.40237413  0.08514972     0.06900
C1673       C  0.54656017  0.40031046  0.06156405    -0.07600
C1674       C  0.53306451  0.41822288  0.07130482     0.04400
C1675       C  0.54541206  0.43886495  0.10535469    -0.14900
C1676       C  0.57044966  0.43990117  0.12942175    -0.08200
C1677       C  0.58671098  0.38414283  0.07328621     0.05300
C1678       C  0.58651565  0.36110166  0.09701398    -0.09300
C1679       C  0.60185659  0.34491451  0.08839938     0.00300
C1680       C  0.61781291  0.35180814  0.05547211     0.00200
C1681       C  0.61775290  0.37457818  0.03150261    -0.12900
C1682       C  0.60215265  0.39058174  0.03996538     0.00600
C1683       C  0.60169979  0.32205817  0.11444749     0.39900
C1684       C  0.60877487  0.41873392  0.52737500     0.36600
C1685       C  0.61015555  0.42517292  0.14496266     0.36300
C1686       C  0.50677501  0.41479663  0.04567162     0.37000
N1687       N  0.60150281  0.30369134  0.13524707    -0.43800
N1688       N  0.61116769  0.43899313  0.50868424    -0.44200
N1689       N  0.98689932  0.41238850  0.03209134    -0.41600
N1690       N  0.63118798  0.42765483  0.16536472    -0.43000
H1691       H  0.58024964  0.45525333  0.15582556     0.13200
H1692       H  0.53726062  0.38477917  0.03528954     0.09700
H1693       H  0.57470381  0.35611550  0.12266794     0.10700
H1694       H  0.63694333  0.38533177  0.52093802     0.16500
C1695       C  0.55375767  0.15834707  0.36358984    -0.01700
C1696       C  0.55101559  0.16764644  0.32562420     0.06900
C1697       C  0.53213605  0.14487435  0.29555231    -0.07600
C1698       C  0.51717459  0.11309302  0.30230604     0.04400
C1699       C  0.52080353  0.10359621  0.34000502    -0.14900
C1700       C  0.53854828  0.12660103  0.37047431    -0.08200
C1701       C  0.57007003  0.20043515  0.31574070     0.05300
C1702       C  0.59176523  0.20675723  0.28986663    -0.09300
C1703       C  0.61108733  0.23733891  0.28050638     0.00300
C1704       C  0.60933303  0.26246035  0.29785913     0.00200
C1705       C  0.58698251  0.25592085  0.32299151    -0.12900
C1706       C  0.56718157  0.22524923  0.33157209     0.00600
C1707       C  0.63135495  0.24193149  0.25167924     0.39900
C1708       C  0.54368949  0.21974653  0.35597577     0.36600
C1709       C  0.57366978  0.18067812  0.39538540     0.36300
C1710       C  0.50053296  0.09082899  0.26931954     0.37000
N1711       N  0.64712342  0.24500900  0.22813892    -0.43800
N1712       N  0.52481162  0.21531881  0.37545731    -0.44200
N1713       N  0.98196662  0.07330543  0.24401402    -0.41600
N1714       N  0.58962018  0.19861022  0.42082064    -0.43000
H1715       H  0.54161439  0.11967963  0.39953205     0.13200
H1716       H  0.53014144  0.15192673  0.26628568     0.09700
H1717       H  0.59361764  0.18764368  0.27694265     0.10700
H1718       H  0.58513854  0.27489960  0.33630681     0.16500
C1719       C  0.83429213  0.41476453  0.31436975    -0.01700
C1720       C  0.81494071  0.39944779  0.34280979     0.06900
C1721       C  0.82826430  0.40052800  0.38103190    -0.07600
C1722       C  0.86035279  0.41723870  0.39133600     0.04400
C1723       C  0.87968559  0.43317700  0.36295558    -0.14900
C1724       C  0.86621989  0.43114611  0.32451342    -0.08200
C1725       C  0.78082126  0.38298698  0.33310869     0.05300
C1726       C  0.76648254  0.35745360  0.30524953    -0.09300
C1727       C  0.73471852  0.34295771  0.29292340     0.00300
C1728       C  0.71657017  0.35395897  0.30876868     0.00200
C1729       C  0.73097665  0.37904049  0.33739356    -0.12900
C1730       C  0.76268654  0.39356160  0.34953490     0.00600
C1731       C  0.72190773  0.31790592  0.26276603     0.39900
C1732       C  0.77619096  0.41999387  0.37787393     0.36600
C1733       C  0.82193351  0.41538819  0.27494963     0.36300
C1734       C  0.87274537  0.41706334  0.43088050     0.37000
N1735       N  0.71228097  0.29791543  0.23852260    -0.43800
N1736       N  0.78689261  0.44115697  0.40060626    -0.44200
N1737       N  0.88268002  0.41680862  0.46253281    -0.41600
N1738       N  0.81212809  0.41604054  0.24338305    -0.43000
H1739       H  0.88063410  0.44339048  0.30238754     0.13200
H1740       H  0.81350667  0.38844033  0.40290713     0.09700
H1741       H  0.78034144  0.34924809  0.29248555     0.10700
H1742       H  0.71738246  0.38748129  0.35029703     0.16500
C1743       C  0.58654413  0.38253359  0.25193268    -0.01700
C1744       C  0.59320484  0.40366713  0.28403628     0.06900
C1745       C  0.61642846  0.40829778  0.31404244    -0.07600
C1746       C  0.63216042  0.39135316  0.31332532     0.04400
C1747       C  0.62498475  0.36944209  0.28174411    -0.14900
C1748       C  0.60241651  0.36561535  0.25098333    -0.08200
C1749       C  0.57437521  0.41889110  0.28945381     0.05300
C1750       C  0.54576115  0.40130674  0.30276210    -0.09300
C1751       C  0.52976762  0.41565858  0.31578988     0.00300
C1752       C  0.54261409  0.44861112  0.31586874     0.00200
C1753       C  0.57025622  0.46570769  0.29950725    -0.12900
C1754       C  0.58609449  0.45115879  0.28646572     0.00600
C1755       C  0.50095641  0.39579589  0.33028186     0.39900
C1756       C  0.61467462  0.46980540  0.27084292     0.36600
C1757       C  0.56326141  0.37762230  0.22005825     0.36300
C1758       C  0.65380660  0.39517163  0.34683738     0.37000
N1759       N  0.97084417  0.37930767  0.33613394    -0.43800
N1760       N  0.63749072  0.48462032  0.25806155    -0.44200
N1761       N  0.67103896  0.39817744  0.37378213    -0.41600
N1762       N  0.54464494  0.37380845  0.19449390    -0.43000
H1763       H  0.59668984  0.34883538  0.22665996     0.13200
H1764       H  0.62129618  0.42423151  0.33903136     0.09700
H1765       H  0.53657454  0.37636653  0.30473748     0.10700
H1766       H  0.58031485  0.49078873  0.29830708     0.16500
C1767       C  0.90392868  0.11894978  0.22869063    -0.01700
C1768       C  0.89311738  0.09553531  0.19822029     0.06900
C1769       C  0.86766122  0.08986984  0.17157145    -0.07600
C1770       C  0.85370070  0.10827530  0.17359864     0.04400
C1771       C  0.86521372  0.13271620  0.20313380    -0.14900
C1772       C  0.88992476  0.13743153  0.23093098    -0.08200
C1773       C  0.90977331  0.07880032  0.19053407     0.05300
C1774       C  0.90358734  0.05174932  0.20960268    -0.09300
C1775       C  0.91601662  0.03315766  0.19897416     0.00300
C1776       C  0.93521533  0.04206697  0.16918429     0.00200
C1777       C  0.94183457  0.06950945  0.15084712    -0.12900
C1778       C  0.92920004  0.08785475  0.16115433     0.00600
C1779       C  0.90731421  0.00425935  0.21734457     0.39900
C1780       C  0.93553359  0.11525590  0.14029243     0.36600
C1781       C  0.93003546  0.12518144  0.25678376     0.36300
C1782       C  0.82924509  0.10296770  0.14320459     0.37000
N1783       N  0.90018756  0.98101525  0.23190102    -0.43800
N1784       N  0.94038634  0.13708716  0.12345010    -0.44200
N1785       N  0.80971069  0.09839827  0.11860321    -0.41600
N1786       N  0.95094746  0.13019078  0.27933500    -0.43000
H1787       H  0.89882327  0.15616647  0.25365980     0.13200
H1788       H  0.85963015  0.07190764  0.14798418     0.09700
H1789       H  0.88813876  0.04458914  0.23168218     0.10700
H1790       H  0.95657226  0.07634957  0.12805085     0.16500
C1791       C  0.96293375  0.35343044  0.15296422    -0.01700
C1792       C  0.94810853  0.33955125  0.18542987     0.06900
C1793       C  0.94824401  0.35831491  0.21621184    -0.07600
C1794       C  0.96102730  0.39047662  0.21382339     0.04400
C1795       C  0.97416140  0.40411130  0.18030317    -0.14900
C1796       C  0.97538868  0.38557542  0.15038874    -0.08200
C1797       C  0.92816288  0.30555370  0.18562729     0.05300
C1798       C  0.93581772  0.28933118  0.21355194    -0.09300
C1799       C  0.91522990  0.25805069  0.21837992     0.00300
C1800       C  0.88657335  0.24225677  0.19409046     0.00200
C1801       C  0.87928416  0.25872806  0.16581445    -0.12900
C1802       C  0.89949633  0.29025077  0.16199325     0.00600
C1803       C  0.92359665  0.24351978  0.24989404     0.39900
C1804       C  0.88942491  0.30705952  0.13573877     0.36600
C1805       C  0.96498274  0.33514996  0.12171712     0.36300
C1806       C  0.95735898  0.40827384  0.24414221     0.37000
N1807       N  0.93055097  0.23202699  0.27510388    -0.43800
N1808       N  0.88129239  0.32080407  0.11531963    -0.44200
N1809       N  0.95383942  0.42207878  0.26844698    -0.41600
N1810       N  0.96697108  0.32075715  0.09666094    -0.43000
H1811       H  0.98517589  0.39606055  0.12453366     0.13200
H1812       H  0.93651635  0.34752055  0.24098198     0.09700
H1813       H  0.95747420  0.30153854  0.23259165     0.10700
H1814       H  0.85756321  0.24710379  0.14689351     0.16500
C1815       C  0.66166403  0.10658475  0.13009197    -0.01700
C1816       C  0.67881615  0.10781139  0.16569120     0.06900
C1817       C  0.66362625  0.09069523  0.19601108    -0.07600
C1818       C  0.63167895  0.07166649  0.19095996     0.04400
C1819       C  0.61446604  0.06959983  0.15482574    -0.14900
C1820       C  0.62968005  0.08727948  0.12474307    -0.08200
C1821       C  0.71280087  0.12445917  0.17094071     0.05300
C1822       C  0.72906274  0.15099714  0.19706973    -0.09300
C1823       C  0.76122452  0.16557758  0.20525791     0.00300
C1824       C  0.77746068  0.15339766  0.18703839     0.00200
C1825       C  0.76089750  0.12711693  0.16036644    -0.12900
C1826       C  0.72893868  0.11251052  0.15244026     0.00600
C1827       C  0.77662328  0.19174693  0.23396377     0.39900
C1828       C  0.71311109  0.08435963  0.12675450     0.36600
C1829       C  0.67655467  0.12506398  0.09893865     0.36300
C1830       C  0.61748184  0.05311542  0.22253119     0.37000
N1831       N  0.78888440  0.21275896  0.25696270    -0.43800
N1832       N  0.70046011  0.06174240  0.10633305    -0.44200
N1833       N  0.60695285  0.54387484  0.24263634    -0.41600
N1834       N  0.68881467  0.14018857  0.07433356    -0.43000
H1835       H  0.61658430  0.08601554  0.09713177     0.13200
H1836       H  0.67692241  0.09140236  0.22324433     0.09700
H1837       H  0.71649965  0.15985644  0.21173182     0.10700
H1838       H  0.77295317  0.11749075  0.14612739     0.16500
C1839       C  0.86759719  0.07971212  0.45172894    -0.01700
C1840       C  0.89834187  0.09316629  0.46947721     0.06900
C1841       C  0.91077970  0.12052899  0.49398027    -0.07600
C1842       C  0.90102384  0.14526874  0.99702186     0.04400
C1843       C  0.86394044  0.12398665  0.47761336    -0.14900
C1844       C  0.85089681  0.09534208  0.45533903    -0.08200
C1845       C  0.91863911  0.08130293  0.45781850     0.05300
C1846       C  0.92549494  0.08484739  0.41950039    -0.09300
C1847       C  0.94014851  0.07008030  0.40417978     0.00300
C1848       C  0.94948597  0.05215839  0.42795884     0.00200
C1849       C  0.94465148  0.05056089  0.46736816    -0.12900
C1850       C  0.92876752  0.06447416  0.48218592     0.00600
C1851       C  0.94335403  0.07231185  0.36325139     0.39900
C1852       C  0.92955418  0.07177274  0.02052822     0.36600
C1853       C  0.85294681  0.05003753  0.42914830     0.36300
C1854       C  0.91566274  0.17301144  0.02329333     0.37000
N1855       N  0.94502002  0.07386302  0.33022806    -0.43800
N1856       N  0.92487801  0.06958877  0.05263868    -0.44200
N1857       N  0.92743711  0.19531454  0.04425779    -0.41600
N1858       N  0.84121266  0.02610609  0.41144766    -0.43000
H1859       H  0.82796334  0.08560882  0.43949867     0.13200
H1860       H  0.94084670  0.13887726  0.00517834     0.09700
H1861       H  0.91771452  0.09784223  0.40074730     0.10700
H1862       H  0.95110338  0.03643757  0.48578858     0.16500
C1863       C  0.90028395  0.34008144  0.42327731    -0.01700
C1864       C  0.91274615  0.32123412  0.43705962     0.06900
C1865       C  0.94481364  0.33463158  0.44558086    -0.07600
C1866       C  0.96449933  0.36641135  0.44120148     0.04400
C1867       C  0.95207996  0.38562450  0.42790492    -0.14900
C1868       C  0.91983613  0.37184716  0.41901962    -0.08200
C1869       C  0.89302692  0.28741344  0.44246986     0.05300
C1870       C  0.89438740  0.26528173  0.41810332    -0.09300
C1871       C  0.87776398  0.23330952  0.42368478     0.00300
C1872       C  0.86015940  0.22301020  0.45506565     0.00200
C1873       C  0.85793119  0.24509363  0.47859810    -0.12900
C1874       C  0.87394886  0.27702826  0.47232935     0.00600
C1875       C  0.87817228  0.21143045  0.39594289     0.39900
C1876       C  0.87068813  0.29875537  0.49702853     0.36600
C1877       C  0.86756576  0.32724527  0.41244391     0.36300
C1878       C  0.99719874  0.37836341  0.45071612     0.37000
N1879       N  0.87821777  0.19378175  0.37362588    -0.43800
N1880       N  0.86774589  0.31625544  0.51624503    -0.44200
N1881       N  0.02880773  0.38939574  0.92506928    -0.41600
N1882       N  0.84136945  0.31708197  0.40368918    -0.43000
H1883       H  0.90966071  0.38585531  0.40845091     0.13200
H1884       H  0.96079534  0.32464614  0.93863954     0.09700
H1885       H  0.90839348  0.27304937  0.39449897     0.10700
H1886       H  0.86608971  0.24886468  0.01681617     0.16500
C1887       C  0.71511702  0.08192022  0.43883721    -0.01700
C1888       C  0.69874920  0.08866162  0.46461873     0.06900
C1889       C  0.71539936  0.11310375  0.49382915    -0.07600
C1890       C  0.74763445  0.13084748  0.49725135     0.04400
C1891       C  0.76381171  0.12369889  0.47174223    -0.14900
C1892       C  0.74728474  0.09905504  0.44297635    -0.08200
C1893       C  0.66433941  0.07136283  0.45991268     0.05300
C1894       C  0.64852333  0.03849858  0.45827368    -0.09300
C1895       C  0.61659165  0.02121451  0.44694931     0.00300
C1896       C  0.59946035  0.03684384  0.43904226     0.00200
C1897       C  0.61521776  0.06978240  0.44336660    -0.12900
C1898       C  0.64718782  0.08699061  0.45310574     0.00600
C1899       C  0.60263205  0.98775497  0.44062199     0.39900
C1900       C  0.66817550  0.12154387  0.97839566     0.36600
C1901       C  0.69939621  0.05865119  0.40654903     0.36300
C1902       C  0.76367166  0.15612538  0.52715427     0.37000
N1903       N  0.59129945  0.96097804  0.43458846    -0.43800
N1904       N  0.67922012  0.14790797  0.98743435    -0.44200
N1905       N  0.78665263  0.14575647  0.07713269    -0.41600
N1906       N  0.68663819  0.04002817  0.38069555    -0.43000
H1907       H  0.75958368  0.09378380  0.42287722     0.13200
H1908       H  0.70314689  0.11851591  0.51375399     0.09700
H1909       H  0.66148189  0.02625853  0.46371886     0.10700
H1910       H  0.60275941  0.08245356  0.43724954     0.16500
C1911       C  0.84667774  0.14164654  0.47640118     0.03500
C1912       C  0.81488683  0.12598748  0.47862497    -0.12700
C1913       C  0.79781742  0.14165778  0.47367886     0.01000
C1914       C  0.81280171  0.17356403  0.46696692    -0.11200
C1915       C  0.84450834  0.18958713  0.46414956     0.03500
C1916       C  0.86123902  0.17347121  0.46901950    -0.10600
H1917       H  0.80318337  0.10133856  0.48360495     0.09100
H1918       H  0.79955691  0.18554694  0.46220532     0.06600
H1919       H  0.88553969  0.18561727  0.46596608     0.06400
C1920       C  0.85297462  0.15996842  0.67770246     0.03500
C1921       C  0.82144021  0.14990417  0.67298267    -0.12700
C1922       C  0.81103362  0.17170343  0.67064379     0.01000
C1923       C  0.83244099  0.20363924  0.67434703    -0.11200
C1924       C  0.86406149  0.21380430  0.68008630     0.03500
C1925       C  0.87417195  0.19187726  0.68111578    -0.10600
H1926       H  0.80502703  0.12511341  0.67064233     0.09100
H1927       H  0.82452836  0.22058785  0.67196520     0.06600
H1928       H  0.89858622  0.19960223  0.68334050     0.06400
C1929       C  0.64306943  0.35530673  0.78615788     0.03500
C1930       C  0.67537215  0.36926516  0.79192428    -0.12700
C1931       C  0.68979780  0.35114439  0.79979163     0.01000
C1932       C  0.67143790  0.31865754  0.80148359    -0.11200
C1933       C  0.63912090  0.30441844  0.79546539     0.03500
C1934       C  0.62521997  0.32287299  0.78714630    -0.10600
H1935       H  0.68926811  0.39440521  0.79170270     0.09100
H1936       H  0.68225586  0.30473635  0.80962431     0.06600
H1937       H  0.60033440  0.31216209  0.78378394     0.06400
C1938       C  0.63873528  0.33900454  0.55945477     0.03500
C1939       C  0.62285818  0.30682108  0.55022254    -0.12700
C1940       C  0.63870584  0.29035638  0.54577031     0.01000
C1941       C  0.67107537  0.30679618  0.54991960    -0.11200
C1942       C  0.68731662  0.33902751  0.56053794     0.03500
C1943       C  0.67094689  0.35520246  0.56395342    -0.10600
H1944       H  0.59794414  0.29438666  0.54814262     0.09100
H1945       H  0.68367138  0.29438652  0.54668980     0.06600
H1946       H  0.68323994  0.38008100  0.57201989     0.06400
O1947       O  0.55815400  0.99623735  0.91614923    -0.79800
O1948       O  0.94923959  0.02307119  0.87583174    -0.79800
O1949       O  0.53716108  0.07099060  0.87274942    -0.79800
O1950       O  0.96767488  0.47960900  0.97216570    -0.79800
O1951       O  0.49780839  0.05548542  0.82704450    -0.79900
O1952       O  0.50898175  0.48929054  0.96026207    -0.79800
O1953       O  0.97863713  0.02794181  0.93076945    -0.79800
O1954       O  0.56356587  0.04249176  0.91441748    -0.79800
C1955       C  0.57486742  0.02533268  0.92424024     1.09900
C1956       C  0.96147897  0.03593380  0.90991032     1.09800
C1957       C  0.52115836  0.07735190  0.84790489     1.09900
C1958       C  0.99496312  0.48734898  0.98606101     1.09800
O1959       O  0.00821569  0.43996677  0.92744042    -0.79800
O1960       O  0.97662616  0.99044845  0.79354345    -0.79900
O1961       O  0.54769578  0.49984762  0.84227425    -0.79800
O1962       O  0.93459178  0.47556292  0.90372242    -0.79800
O1963       O  0.93876972  0.46696369  0.84384773    -0.79800
O1964       O  0.50693934  0.45536459  0.85173092    -0.79800
O1965       O  0.96617108  0.44357041  0.91195659    -0.79800
O1966       O  0.53019732  0.03414750  0.80247422    -0.79800
Co1967     Co  0.50568594  0.47225522  0.90299660     1.51500
Co1968     Co  0.96390812  0.00569408  0.83583053     1.51700
Co1969     Co  0.54407530  0.03628723  0.86018517     1.51600
Co1970     Co  0.97920310  0.49082718  0.92205644     1.51500
O1971       O  0.00223638  0.50673657  0.87627241    -1.41700
C1972       C  0.97910354  0.42695838  0.92192286     1.09800
C1973       C  0.00697270  0.51250634  0.78180058     1.09900
C1974       C  0.53145456  0.47014785  0.83618593     1.09800
C1975       C  0.92195378  0.46201613  0.87040009     1.09800
O1976       O  0.57011606  0.04952697  0.66856316    -0.79800
O1977       O  0.94708279  0.01935624  0.61570750    -0.79800
O1978       O  0.53718976  0.05610531  0.58822936    -0.79800
O1979       O  0.98299416  0.48643238  0.72028027    -0.79800
O1980       O  0.49063766  0.04479455  0.56925292    -0.79900
O1981       O  0.52220000  0.52279131  0.72077375    -0.79800
O1982       O  0.96203883  0.01707921  0.67555375    -0.79800
O1983       O  0.57104752  0.03387145  0.60912495    -0.79800
C1984       C  0.58435009  0.05234264  0.63960613     1.09900
C1985       C  0.95007924  0.02749403  0.65093751     1.09800
C1986       C  0.51875634  0.06385636  0.57223967     1.09900
C1987       C  0.00659216  0.50855426  0.73987070     1.09800
O1988       O  0.01244676  0.46332243  0.69580274    -0.79800
O1989       O  0.97720389  0.97594108  0.54901732    -0.79900
O1990       O  0.51378840  0.46370637  0.59724046    -0.79800
O1991       O  0.92882569  0.46180158  0.67021553    -0.79800
O1992       O  0.93620789  0.46152470  0.60845682    -0.79800
O1993       O  0.54875380  0.48122382  0.64774042    -0.79800
O1994       O  0.97298533  0.44862764  0.65059785    -0.79800
O1995       O  0.52909626  0.00883532  0.53957302    -0.79800
Co1996     Co  0.53332947  0.50287142  0.68038173     1.51500
Co1997     Co  0.96539845  0.99776928  0.58952498     1.51700
Co1998     Co  0.52532170  0.01222626  0.59307837     1.51600
Co1999     Co  0.97101736  0.48652231  0.66349069     1.51500
O2000       O  0.00809090  0.51186516  0.64094237    -1.41700
C2001       C  0.98896476  0.44202090  0.67506807     1.09800
C2002       C  0.99980361  0.49135821  0.52785053     1.09900
C2003       C  0.53450775  0.46163647  0.61881818     1.09800
C2004       C  0.91779490  0.45395131  0.63467628     1.09800
C2005       C  0.57274225  0.20973586  0.51267640    -0.01700
C2006       C  0.57995711  0.19095212  0.53708594     0.06900
C2007       C  0.60777763  0.20440688  0.56204907    -0.07600
C2008       C  0.62800975  0.23649894  0.56428385     0.04400
C2009       C  0.62072575  0.25574506  0.54034359    -0.14900
C2010       C  0.59331674  0.24182134  0.51405591    -0.08200
C2011       C  0.55933994  0.15707622  0.53779998     0.05300
C2012       C  0.56994257  0.13716860  0.52586557    -0.09300
C2013       C  0.55558581  0.10602096  0.53470835     0.00300
C2014       C  0.53038777  0.09455699  0.55623190     0.00200
C2015       C  0.51779190  0.11355113  0.56460115    -0.12900
C2016       C  0.53221189  0.14487115  0.55575544     0.00600
C2017       C  0.56714459  0.08629235  0.52143881     0.39900
C2018       C  0.51991027  0.16436346  0.56747297     0.36600
C2019       C  0.54424079  0.19669457  0.48665692     0.36300
C2020       C  0.65488447  0.24887445  0.59317344     0.37000
N2021       N  0.07742160  0.06722657  0.51535888    -0.43800
N2022       N  0.50988069  0.17989455  0.57661074    -0.44200
N2023       N  0.67640388  0.25846933  0.61630305    -0.41600
N2024       N  0.52126126  0.18620319  0.46607565    -0.43000
H2025       H  0.58749418  0.25624587  0.49538271     0.13200
H2026       H  0.61320574  0.18977142  0.58087587     0.09700
H2027       H  0.59040329  0.14642536  0.51125687     0.10700
H2028       H  0.49784430  0.10449953  0.57996652     0.16500
C2029       C  0.77199078  0.36777538  0.55579357    -0.01700
C2030       C  0.78567355  0.38477008  0.59226392     0.06900
C2031       C  0.76680767  0.38651481  0.61814484    -0.07600
C2032       C  0.73483782  0.37144463  0.60853111     0.04400
C2033       C  0.72116923  0.35514569  0.57166485    -0.14900
C2034       C  0.73616738  0.34735007  0.03348531    -0.08200
C2035       C  0.81961822  0.40165448  0.60348687     0.05300
C2036       C  0.83813222  0.42423429  0.57947916    -0.09300
C2037       C  0.87010030  0.44106116  0.58888654     0.00300
C2038       C  0.88421285  0.43546738  0.62314800     0.00200
C2039       C  0.86570279  0.41343350  0.64771544    -0.12900
C2040       C  0.83364874  0.39647457  0.63814718     0.00600
C2041       C  0.88760434  0.46512493  0.56391527     0.39900
C2042       C  0.81576027  0.37379778  0.66424917     0.36800
C2043       C  0.78603640  0.35463101  0.01941871     0.36300
C2044       C  0.71652095  0.37180153  0.63779243     0.37000
N2045       N  0.89974260  0.97633999  0.53462730    -0.43800
N2046       N  0.80143393  0.35581949  0.68536253    -0.44200
N2047       N  0.70179500  0.37190804  0.66125739    -0.41600
N2048       N  0.80056630  0.34940624  0.99989263    -0.43000
H2049       H  0.72565518  0.33242481  0.00679706     0.13200
H2050       H  0.77710428  0.39959644  0.64612930     0.09700
H2051       H  0.82746559  0.42911498  0.55353890     0.10700
H2052       H  0.87630994  0.40935276  0.67435229     0.16500
C2053       C  0.58311185  0.42240838  0.62618374    -0.01700
C2054       C  0.57190434  0.40242111  0.59207175     0.06900
C2055       C  0.54648135  0.39984593  0.56759627    -0.07600
C2056       C  0.53285316  0.41791563  0.57601097     0.04400
C2057       C  0.54483308  0.43891113  0.60967762    -0.14900
C2058       C  0.56939189  0.44003447  0.63489202    -0.08200
C2059       C  0.58732476  0.38489037  0.58139973     0.05300
C2060       C  0.58591869  0.36120292  0.60468430    -0.09300
C2061       C  0.60284466  0.34631518  0.59823209     0.00300
C2062       C  0.62132843  0.35495568  0.56769757     0.00200
C2063       C  0.62269130  0.37861182  0.54432488    -0.12900
C2064       C  0.60582877  0.39362107  0.55097637     0.00600
C2065       C  0.60186175  0.32315359  0.62428659     0.39900
C2066       C  0.60297618  0.41403531  0.01462257     0.36600
C2067       C  0.60968509  0.42642111  0.65182459     0.36300
C2068       C  0.50695847  0.41450034  0.54952869     0.37000
N2069       N  0.60113935  0.30462194  0.64514570    -0.43800
N2070       N  0.60356351  0.43274617  0.99418473    -0.44200
N2071       N  0.98659858  0.41588150  0.52942685    -0.41600
N2072       N  0.63100176  0.42973937  0.67234758    -0.43000
H2073       H  0.57883814  0.45560579  0.66111825     0.13200
H2074       H  0.53762020  0.38402344  0.54162789     0.09700
H2075       H  0.57216961  0.35494560  0.62858667     0.10700
H2076       H  0.62991031  0.37981971  0.00614763     0.16500
C2077       C  0.56600814  0.16502680  0.86615816    -0.01700
C2078       C  0.56327736  0.17521189  0.82872508     0.06900
C2079       C  0.54439712  0.15299742  0.79806563    -0.07600
C2080       C  0.52933329  0.12099889  0.80376265     0.04400
C2081       C  0.53219310  0.11073671  0.84118926    -0.14900
C2082       C  0.55001794  0.13316994  0.87219273    -0.08200
C2083       C  0.58205812  0.20842015  0.82001313     0.05300
C2084       C  0.60277690  0.21569261  0.79248974    -0.09300
C2085       C  0.62132857  0.24663335  0.78361670     0.00300
C2086       C  0.61963877  0.27107151  0.80290817     0.00200
C2087       C  0.59857863  0.26369132  0.83003279    -0.12900
C2088       C  0.57963187  0.23273927  0.83832915     0.00600
C2089       C  0.64072691  0.25240661  0.75336265     0.39900
C2090       C  0.55727675  0.22651702  0.86479692     0.36600
C2091       C  0.58708132  0.18637863  0.89808080     0.36300
C2092       C  0.51406042  0.09938773  0.76991381     0.37000
N2093       N  0.65592049  0.25663387  0.72877308    -0.43800
N2094       N  0.53937636  0.22166508  0.88598937    -0.44200
N2095       N  0.98983675  0.07642437  0.74076606    -0.41600
N2096       N  0.60410522  0.20339030  0.92363731    -0.43000
H2097       H  0.55283907  0.12566724  0.90096543     0.13200
H2098       H  0.54265300  0.16064184  0.76909092     0.09700
H2099       H  0.60441068  0.19705836  0.77781376     0.10700
H2100       H  0.59689092  0.28225291  0.84480873     0.16500
C2101       C  0.84237805  0.42749216  0.81346011    -0.01700
C2102       C  0.82282618  0.41251155  0.84193311     0.06900
C2103       C  0.83615569  0.41259247  0.87981149    -0.07600
C2104       C  0.86829197  0.42783928  0.88973988     0.04400
C2105       C  0.88783785  0.44324050  0.86130387    -0.14900
C2106       C  0.87439559  0.44241198  0.82323226    -0.08200
C2107       C  0.78855206  0.39641337  0.83237504     0.05300
C2108       C  0.77414801  0.37243801  0.80239170    -0.09300
C2109       C  0.74227503  0.35776686  0.79097791     0.00300
C2110       C  0.72388489  0.36656397  0.81018046     0.00200
C2111       C  0.73823279  0.39032842  0.84048851    -0.12900
C2112       C  0.77018479  0.40520346  0.85169530     0.00600
C2113       C  0.72934362  0.33487046  0.75820989     0.39900
C2114       C  0.78360483  0.42988513  0.88247115     0.36600
C2115       C  0.83020702  0.42883511  0.77422379     0.36300
C2116       C  0.88044126  0.42656175  0.92899191     0.37000
N2117       N  0.71931494  0.31674018  0.73170034    -0.43800
N2118       N  0.79430608  0.44958058  0.90723615    -0.44200
N2119       N  0.89005418  0.42533653  0.96043871    -0.41600
N2120       N  0.82045563  0.42982164  0.74275765    -0.43000
H2121       H  0.88896871  0.45433688  0.80112213     0.13200
H2122       H  0.82136772  0.40060866  0.90170016     0.09700
H2123       H  0.78799501  0.36545088  0.78739767     0.10700
H2124       H  0.72437390  0.39720823  0.85561277     0.16500
C2125       C  0.58764718  0.38521413  0.75401882    -0.01700
C2126       C  0.59363108  0.40663418  0.78553901     0.06900
C2127       C  0.61666643  0.41194575  0.81617851    -0.07600
C2128       C  0.63343360  0.39608891  0.81623590     0.04400
C2129       C  0.62764094  0.37462927  0.78479488    -0.14900
C2130       C  0.60470182  0.36944482  0.75380064    -0.08200
C2131       C  0.57521646  0.42258501  0.78920318     0.05300
C2132       C  0.54480252  0.40507684  0.79733489    -0.09300
C2133       C  0.52905982  0.41977511  0.81027887     0.00300
C2134       C  0.54385110  0.45290031  0.81500516     0.00200
C2135       C  0.57340565  0.47017990  0.80335806    -0.12900
C2136       C  0.58912391  0.45537790  0.79093568     0.00600
C2137       C  0.49855113  0.39998105  0.82045730     0.39900
C2138       C  0.62011777  0.47430769  0.78173519     0.36600
C2139       C  0.56410751  0.37905126  0.72190267     0.36300
C2140       C  0.65492673  0.40064935  0.85025030     0.37000
N2141       N  0.97769038  0.38707805  0.83116654    -0.43800
N2142       N  0.64497354  0.48933696  0.77438263    -0.44200
N2143       N  0.67204390  0.40413681  0.87754294    -0.41600
N2144       N  0.54519343  0.37416416  0.69624752    -0.43000
H2145       H  0.59981331  0.35271504  0.72975537     0.13200
H2146       H  0.62084937  0.42787021  0.84088585     0.09700
H2147       H  0.53401567  0.37979471  0.79596446     0.10700
H2148       H  0.58516402  0.49549651  0.80597543     0.16500
C2149       C  0.90009247  0.12159727  0.70808591    -0.01700
C2150       C  0.89178548  0.09978982  0.67635354     0.06900
C2151       C  0.86930244  0.09636680  0.64596356    -0.07600
C2152       C  0.85573391  0.11528210  0.64616762     0.04400
C2153       C  0.86427490  0.13743938  0.67781002    -0.14900
C2154       C  0.88610396  0.14008714  0.70876518    -0.08200
C2155       C  0.90863013  0.08271786  0.67224302     0.05300
C2156       C  0.90395912  0.05830512  0.69609058    -0.09300
C2157       C  0.91859987  0.04074073  0.69118539     0.00300
C2158       C  0.93828423  0.04797887  0.66215447     0.00200
C2159       C  0.94377537  0.07320938  0.63968912    -0.12900
C2160       C  0.92911388  0.09056483  0.64428285     0.00600
C2161       C  0.91155725  0.01435688  0.71436163     0.39900
C2162       C  0.93481928  0.11583384  0.61951203     0.36600
C2163       C  0.92424317  0.12666731  0.73883869     0.36300
C2164       C  0.83507446  0.11319210  0.61233095     0.37000
N2165       N  0.90585408  0.99317244  0.73287331    -0.43800
N2166       N  0.93913816  0.13595867  0.59958346    -0.44200
N2167       N  0.81865881  0.11162795  0.58515822    -0.41600
N2168       N  0.94375382  0.13068282  0.76319673    -0.43000
H2169       H  0.89292857  0.15736416  0.73287111     0.13200
H2170       H  0.86345700  0.07987968  0.62123215     0.09700
H2171       H  0.88819058  0.05245373  0.71769185     0.10700
H2172       H  0.95898482  0.07873489  0.61734552     0.16500
C2173       C  0.96721906  0.35905242  0.65341725    -0.01700
C2174       C  0.94963100  0.34480642  0.68370578     0.06900
C2175       C  0.94846859  0.36313818  0.71397913    -0.07600
C2176       C  0.96281906  0.39548446  0.71287827     0.04400
C2177       C  0.97871624  0.40947340  0.68122512    -0.14900
C2178       C  0.98126531  0.39130506  0.65218152    -0.08200
C2179       C  0.92868735  0.31105730  0.68160670     0.05300
C2180       C  0.93308939  0.29351497  0.71056707    -0.09300
C2181       C  0.91214728  0.26177582  0.71102693     0.00300
C2182       C  0.88654122  0.24732976  0.68172591     0.00200
C2183       C  0.88225311  0.26512902  0.65285217    -0.12900
C2184       C  0.90283079  0.29689344  0.65291823     0.00600
C2185       C  0.91690129  0.24503365  0.74264043     0.39900
C2186       C  0.89624591  0.31480625  0.62444250     0.36600
C2187       C  0.96994645  0.34104278  0.62243157     0.36300
C2188       C  0.95839740  0.41329637  0.74244617     0.37000
N2189       N  0.92091827  0.23176142  0.76800341    -0.43800
N2190       N  0.89113805  0.32945747  0.60196544    -0.44200
N2191       N  0.95437651  0.42709066  0.76625362    -0.41600
N2192       N  0.97223534  0.32682708  0.59743727    -0.43000
H2193       H  0.99297092  0.40214215  0.62762178     0.13200
H2194       H  0.93466415  0.35200619  0.73707048     0.09700
H2195       H  0.95262476  0.30481523  0.73316438     0.10700
H2196       H  0.86268137  0.25421153  0.63026341     0.16500
C2197       C  0.65985582  0.11488764  0.61241462    -0.01700
C2198       C  0.68001660  0.11816921  0.64599215     0.06900
C2199       C  0.66828726  0.10158766  0.67832495    -0.07600
C2200       C  0.63702716  0.08061715  0.67706143     0.04400
C2201       C  0.61698658  0.07584607  0.64264664    -0.14900
C2202       C  0.62849823  0.09334715  0.61074635    -0.08200
C2203       C  0.71371749  0.13568959  0.64725742     0.05300
C2204       C  0.73091549  0.15941491  0.67691163    -0.09300
C2205       C  0.76270961  0.17168826  0.68503962     0.00300
C2206       C  0.77779595  0.16086461  0.66220389     0.00200
C2207       C  0.76064853  0.13805111  0.63147730    -0.12900
C2208       C  0.72876558  0.12492335  0.62440305     0.00600
C2209       C  0.77869495  0.19307656  0.71904037     0.39900
C2210       C  0.71178459  0.09835694  0.59634514     0.36600
C2211       C  0.67080579  0.13351619  0.57976071     0.36300
C2212       C  0.62658175  0.06289521  0.71061902     0.37000
N2213       N  0.79144655  0.21002556  0.74645000    -0.43800
N2214       N  0.69805871  0.07681275  0.57429531    -0.44200
N2215       N  0.61086615  0.52829260  0.73044676    -0.41600
N2216       N  0.67948998  0.14867625  0.55374378    -0.43000
H2217       H  0.61300176  0.09024415  0.58468356     0.13200
H2218       H  0.68387081  0.10403996  0.70409075     0.09700
H2219       H  0.71914255  0.16686886  0.69532956     0.10700
H2220       H  0.77208642  0.12955236  0.61392069     0.16500
C2221       C  0.87334144  0.08973803  0.94875064    -0.01700
C2222       C  0.90402472  0.10217101  0.96644946     0.06900
C2223       C  0.91732666  0.12940389  0.99133543    -0.07600
C2224       C  0.89363917  0.13569046  0.49872728     0.04400
C2225       C  0.87098288  0.13397869  0.97715542    -0.14900
C2226       C  0.85726324  0.10574545  0.95393421    -0.08200
C2227       C  0.92339237  0.08921791  0.95477696     0.05300
C2228       C  0.92823199  0.09022951  0.91571190    -0.09300
C2229       C  0.94188991  0.07430560  0.90085740     0.00300
C2230       C  0.95237604  0.05784812  0.92587241     0.00200
C2231       C  0.94986814  0.05907892  0.96587059    -0.12900
C2232       C  0.93497798  0.07419336  0.98033607     0.00600
C2233       C  0.94290591  0.07392643  0.85931878     0.39900
C2234       C  0.92055504  0.05872531  0.52105987     0.36600
C2235       C  0.85815725  0.06092389  0.92428189     0.36300
C2236       C  0.90681500  0.16289787  0.52575581     0.37000
N2237       N  0.94290469  0.07334899  0.82591539    -0.43800
N2238       N  0.91342433  0.05364045  0.55196075    -0.44200
N2239       N  0.91720548  0.18461732  0.54756068    -0.41600
N2240       N  0.84607978  0.03785058  0.90471466    -0.43000
H2241       H  0.83425562  0.09667255  0.93853930     0.13200
H2242       H  0.93420563  0.13056867  0.50837091     0.09700
H2243       H  0.91962998  0.10214943  0.89616900     0.10700
H2244       H  0.95747179  0.04634825  0.98533019     0.16500
C2245       C  0.90840758  0.35010130  0.93372356    -0.01700
C2246       C  0.92035410  0.32950207  0.93803383     0.06900
C2247       C  0.95166704  0.34060867  0.93562352    -0.07600
C2248       C  0.97135562  0.37204662  0.92988165     0.04400
C2249       C  0.95955043  0.39301031  0.92621671    -0.14900
C2250       C  0.92792734  0.38141604  0.92771411    -0.08200
C2251       C  0.90074480  0.29628167  0.94537830     0.05300
C2252       C  0.89350401  0.27320606  0.91582159    -0.09300
C2253       C  0.87663779  0.24150726  0.92239131     0.00300
C2254       C  0.86662209  0.23254067  0.95905115     0.00200
C2255       C  0.87335632  0.25565372  0.98843362    -0.12900
C2256       C  0.89054400  0.28740646  0.98193065     0.00600
C2257       C  0.87004308  0.21856165  0.89120277     0.39900
C2258       C  0.89886587  0.31059133  0.01351004     0.36600
C2259       C  0.87620466  0.33969302  0.93516399     0.36300
C2260       C  0.00326826  0.38172456  0.92728186     0.37000
N2261       N  0.86480089  0.20017630  0.86621911    -0.43800
N2262       N  0.90597760  0.32960735  0.03841304    -0.44200
N2263       N  0.02340659  0.38786655  0.45826342    -0.41600
N2264       N  0.85045345  0.33162829  0.93631712    -0.43000
H2265       H  0.91833222  0.39692922  0.92464380     0.13200
H2266       H  0.95450579  0.32014774  0.45597990     0.09700
H2267       H  0.90142148  0.28002163  0.88773762     0.10700
H2268       H  0.84408292  0.23742990  0.50236188     0.16500
C2269       C  0.72237118  0.10154032  0.93385922    -0.01700
C2270       C  0.70672839  0.09359142  0.96701656     0.06900
C2271       C  0.72362951  0.10540225  0.00410626    -0.07600
C2272       C  0.75576441  0.12467852  0.00827448     0.04400
C2273       C  0.77118087  0.13267099  0.97501282    -0.14900
C2274       C  0.75430657  0.12099697  0.93809153    -0.08200
C2275       C  0.67257892  0.07456246  0.96272857     0.05300
C2276       C  0.65815524  0.04286110  0.94965911    -0.09300
C2277       C  0.62612961  0.02560197  0.93879515     0.00300
C2278       C  0.60788895  0.04015514  0.94130430     0.00200
C2279       C  0.62249674  0.07156737  0.95612763    -0.12900
C2280       C  0.65438404  0.08871792  0.96668231     0.00600
C2281       C  0.61325930  0.99398699  0.92223145     0.39900
C2282       C  0.66192014  0.12062280  0.45301729     0.36600
C2283       C  0.70603094  0.09037254  0.89511274     0.36300
C2284       C  0.77264351  0.13618924  0.04665836     0.37000
N2285       N  0.60311746  0.96873981  0.90871594    -0.43800
N2286       N  0.67365910  0.14755061  0.45285356    -0.44200
N2287       N  0.77673282  0.17659303  0.55082052    -0.41600
N2288       N  0.69291152  0.08134897  0.86408841    -0.43000
H2289       H  0.76622350  0.12688607  0.91250969     0.13200
H2290       H  0.71171315  0.09958329  0.02967110     0.09700
H2291       H  0.67219240  0.03202990  0.94609081     0.10700
H2292       H  0.60915657  0.08340129  0.95772141     0.16500
C2293       C  0.85169236  0.64747190  0.97976031     0.03500
C2294       C  0.81968214  0.63078856  0.98089192    -0.12700
C2295       C  0.80189364  0.64579191  0.97579714     0.01000
C2296       C  0.81636638  0.67778898  0.96940584    -0.11200
C2297       C  0.84816569  0.69446200  0.96713378     0.03500
C2298       C  0.86563532  0.67927466  0.97288543    -0.10600
H2299       H  0.80845100  0.60592522  0.98458162     0.09100
H2300       H  0.80267749  0.68926910  0.96422581     0.06600
H2301       H  0.89003571  0.69202396  0.97032364     0.06400
C2302       C  0.84689401  0.65288319  0.18501465     0.03500
C2303       C  0.81543123  0.64251763  0.18218168    -0.12700
C2304       C  0.80477420  0.66417277  0.18142886     0.01000
C2305       C  0.82613215  0.69619632  0.18524861    -0.11200
C2306       C  0.85784671  0.70660133  0.18856604     0.03500
C2307       C  0.86791637  0.68469887  0.18762077    -0.10600
H2308       H  0.79931384  0.61764579  0.17958989     0.09100
H2309       H  0.81807221  0.71302169  0.18390487     0.06600
H2310       H  0.89211949  0.69223215  0.18740432     0.06400
C2311       C  0.63549085  0.84793387  0.28773474     0.03500
C2312       C  0.66764363  0.86091993  0.29240265    -0.12700
C2313       C  0.68139451  0.84219825  0.30032926     0.01000
C2314       C  0.66236111  0.80984692  0.30267292    -0.11200
C2315       C  0.63000798  0.79627538  0.29702787     0.03500
C2316       C  0.61690496  0.81558400  0.28918697    -0.10600
H2317       H  0.68204067  0.88592523  0.29136060     0.09100
H2318       H  0.67272914  0.79554298  0.31087588     0.06600
H2319       H  0.59210334  0.80560816  0.28595111     0.06400
C2320       C  0.63302436  0.83406512  0.06030480     0.03500
C2321       C  0.61642786  0.80174984  0.05247671    -0.12700
C2322       C  0.63180432  0.78482016  0.04912493     0.01000
C2323       C  0.66400978  0.80032312  0.05242427    -0.11200
C2324       C  0.68092365  0.83287661  0.05978717     0.03500
C2325       C  0.66520879  0.84975836  0.06286729    -0.10600
H2326       H  0.59154617  0.78955390  0.05115128     0.09100
H2327       H  0.67585289  0.78690056  0.05135091     0.06600
H2328       H  0.67803201  0.87486799  0.06911694     0.06400
O2329       O  0.55138634  0.49031511  0.41462848    -0.79800
O2330       O  0.94721185  0.52128130  0.38106872    -0.79800
O2331       O  0.52692863  0.56252112  0.37034669    -0.79800
O2332       O  0.96055970  0.97034130  0.47046790    -0.79800
O2333       O  0.48728932  0.54646929  0.32516614    -0.79900
O2334       O  0.50914985  0.98892323  0.46133112    -0.79800
O2335       O  0.97749367  0.52545779  0.43485061    -0.79800
O2336       O  0.55532681  0.53591851  0.41167057    -0.79800
C2337       C  0.56763503  0.51965567  0.42165899     1.09900
C2338       C  0.95986867  0.53355599  0.41542520     1.09800
C2339       C  0.51049335  0.56858473  0.34586239     1.09900
C2340       C  0.98838748  0.97985271  0.48365597     1.09800
O2341       O  0.00154620  0.93210431  0.42670848    -0.79800
O2342       O  0.97259169  0.48790421  0.29569897    -0.79900
O2343       O  0.54426411  0.99658618  0.34264956    -0.79800
O2344       O  0.92635999  0.96516922  0.40258268    -0.79800
O2345       O  0.93024353  0.95653325  0.34262503    -0.79800
O2346       O  0.50371182  0.95232187  0.35335747    -0.79800
O2347       O  0.95912622  0.93458075  0.40995114    -0.79800
O2348       O  0.52019456  0.52548891  0.30005145    -0.79800
Co2349     Co  0.50384338  0.97022460  0.40455757     1.51500
Co2350     Co  0.96086289  0.50321108  0.33966479     1.51700
Co2351     Co  0.53501891  0.52862141  0.35767035     1.51600
Co2352     Co  0.97128474  0.98139038  0.41998271     1.51500
O2353       O  0.99387835  0.99750426  0.37377053    -1.41700
C2354       C  0.97233071  0.91856232  0.42138144     1.09800
C2355       C  0.99728485  0.00266284  0.27907327     1.09900
C2356       C  0.52780749  0.96681533  0.33694359     1.09800
C2357       C  0.91355521  0.95159319  0.36932940     1.09800
O2358       O  0.56161361  0.54234619  0.16906905    -0.79800
O2359       O  0.94956257  0.52186183  0.11796652    -0.79800
O2360       O  0.53025658  0.54917708  0.09026410    -0.79800
O2361       O  0.97450353  0.97577128  0.21699677    -0.79800
O2362       O  0.48392103  0.53823804  0.07007273    -0.79900
O2363       O  0.52021509  0.02063307  0.22367854    -0.79800
O2364       O  0.96218288  0.51686568  0.17784797    -0.79800
O2365       O  0.56471307  0.52756201  0.11051292    -0.79800
C2366       C  0.57707975  0.54566297  0.14136345     1.09900
C2367       C  0.95129805  0.52843004  0.15346446     1.09800
C2368       C  0.51208940  0.55736316  0.07464098     1.09900
C2369       C  0.99737888  0.99849457  0.23714249     1.09800
O2370       O  0.00595240  0.95497017  0.19318979    -0.79800
O2371       O  0.98173811  0.48047890  0.05083410    -0.79900
O2372       O  0.51692614  0.96689671  0.09905955    -0.79800
O2373       O  0.92112572  0.94897681  0.16344547    -0.79800
O2374       O  0.93082500  0.95228515  0.10224454    -0.79800
O2375       O  0.55059519  0.98307787  0.15082982    -0.79800
O2376       O  0.96805093  0.93965805  0.14581233    -0.79800
O2377       O  0.52541521  0.50465362  0.04002366    -0.79800
Co2378     Co  0.53329023  0.00266701  0.18350907     1.51500
Co2379     Co  0.96836585  0.50084178  0.09152617     1.51700
Co2380     Co  0.51913305  0.50552888  0.09285715     1.51600
Co2381     Co  0.96341967  0.97587702  0.15948826     1.51500
O2382       O  0.00091308  0.00349139  0.13888135    -1.41700
C2383       C  0.98391674  0.93341318  0.17092120     1.09800
C2384       C  0.99764900  0.98858446  0.02517842     1.09900
C2385       C  0.53712545  0.96432255  0.12104974     1.09800
C2386       C  0.91135945  0.94256014  0.12736104     1.09800
C2387       C  0.57217928  0.70209437  0.01595939    -0.01700
C2388       C  0.57435391  0.68642507  0.04881357     0.06900
C2389       C  0.59639284  0.70276106  0.08098010    -0.07600
C2390       C  0.61613879  0.73481928  0.08095499     0.04400
C2391       C  0.61395606  0.75066570  0.04810004    -0.14900
C2392       C  0.59192962  0.73421579  0.01584353    -0.08200
C2393       C  0.55507223  0.65255384  0.04962260     0.05300
C2394       C  0.56689183  0.63372302  0.03803907    -0.09300
C2395       C  0.55147187  0.60187209  0.04296506     0.00300
C2396       C  0.52444504  0.58886662  0.06119000     0.00200
C2397       C  0.51117263  0.60722138  0.06961961    -0.12900
C2398       C  0.52630569  0.63911199  0.06366781     0.00600
C2399       C  0.56345380  0.58291965  0.02833656     0.39900
C2400       C  0.51242457  0.65773457  0.07275126     0.36600
C2401       C  0.54970896  0.68552956  0.98247999     0.36300
C2402       C  0.63746667  0.75125350  0.11547351     0.37000
N2403       N  0.08140624  0.56841698  0.02301438    -0.43800
N2404       N  0.50124459  0.67271367  0.07956004    -0.44200
N2405       N  0.65459650  0.76469091  0.14295582    -0.41600
N2406       N  0.53154688  0.67187949  0.95591239    -0.43000
H2407       H  0.58996082  0.74657474  0.99089059     0.13200
H2408       H  0.59796611  0.69042623  0.10616903     0.09700
H2409       H  0.58848391  0.64408011  0.02579575     0.10700
H2410       H  0.48989215  0.59705045  0.08239040     0.16500
C2411       C  0.76373958  0.85714662  0.04896236    -0.01700
C2412       C  0.77953061  0.87600906  0.08370901     0.06900
C2413       C  0.76279512  0.88115688  0.11002746    -0.07600
C2414       C  0.73076444  0.86711877  0.10293327     0.04400
C2415       C  0.71493165  0.84867942  0.06789426    -0.14900
C2416       C  0.73397233  0.85087018  0.53632110    -0.08200
C2417       C  0.81344918  0.89063999  0.09352464     0.05300
C2418       C  0.83248893  0.91227096  0.06904877    -0.09300
C2419       C  0.86445549  0.92886481  0.07912731     0.00300
C2420       C  0.87799823  0.92339265  0.11406412     0.00200
C2421       C  0.85891519  0.90141465  0.13828965    -0.12900
C2422       C  0.82690157  0.88515424  0.12839718     0.00600
C2423       C  0.88239226  0.95331385  0.05484519     0.39900
C2424       C  0.80825146  0.86335925  0.15481148     0.36800
C2425       C  0.78354947  0.86228852  0.51669406     0.36300
C2426       C  0.71462326  0.87023175  0.13331377     0.37000
N2427       N  0.90100046  0.47640305  0.03231864    -0.43800
N2428       N  0.79310845  0.84611001  0.17600144    -0.44200
N2429       N  0.70166184  0.87245911  0.15778083    -0.41600
N2430       N  0.79753484  0.85998718  0.49362971    -0.43000
H2431       H  0.72308082  0.83803250  0.50830521     0.13200
H2432       H  0.77480224  0.89563933  0.13676858     0.09700
H2433       H  0.82220513  0.91722248  0.04281209     0.10700
H2434       H  0.86898492  0.89731972  0.16536893     0.16500
C2435       C  0.58345676  0.92269734  0.12984185    -0.01700
C2436       C  0.57259654  0.90340281  0.09508510     0.06900
C2437       C  0.54827293  0.90225390  0.06972362    -0.07600
C2438       C  0.53546288  0.92106609  0.07772299     0.04400
C2439       C  0.54729915  0.94160098  0.11178627    -0.14900
C2440       C  0.57077067  0.94143648  0.13788633    -0.08200
C2441       C  0.58680447  0.88470865  0.08455884     0.05300
C2442       C  0.58491651  0.86112161  0.10836785    -0.09300
C2443       C  0.59958670  0.84412643  0.10073027     0.00300
C2444       C  0.61672707  0.85100930  0.06890886     0.00200
C2445       C  0.61827026  0.87430337  0.04481153    -0.12900
C2446       C  0.60315164  0.89095026  0.05211296     0.00600
C2447       C  0.59717298  0.82023055  0.12639037     0.39900
C2448       C  0.60585752  0.91592573  0.52277100     0.36600
C2449       C  0.60823888  0.92448816  0.15723823     0.36300
C2450       C  0.50999966  0.91818508  0.05081331     0.37000
N2451       N  0.59497013  0.80094960  0.14683354    -0.43800
N2452       N  0.60902609  0.93647295  0.50422137    -0.44200
N2453       N  0.98857832  0.91514288  0.02081589    -0.41600
N2454       N  0.62794147  0.92595521  0.17945389    -0.43000
H2455       H  0.57986133  0.95648873  0.16456181     0.13200
H2456       H  0.53946068  0.88674706  0.04343677     0.09700
H2457       H  0.57214582  0.85620578  0.13314921     0.10700
H2458       H  0.63086698  0.88000039  0.51426265     0.16500
C2459       C  0.55605546  0.65629082  0.36352504    -0.01700
C2460       C  0.55208206  0.66632199  0.32645332     0.06900
C2461       C  0.53153579  0.64422938  0.29663114    -0.07600
C2462       C  0.51596712  0.61228777  0.30280829     0.04400
C2463       C  0.52098917  0.60199480  0.33948956    -0.14900
C2464       C  0.54036480  0.62448786  0.36981704    -0.08200
C2465       C  0.57076580  0.69945584  0.31768644     0.05300
C2466       C  0.59345121  0.70719513  0.29300754    -0.09300
C2467       C  0.61264545  0.73833173  0.28536334     0.00300
C2468       C  0.60969749  0.76259208  0.30320800     0.00200
C2469       C  0.58645231  0.75454345  0.32741796    -0.12900
C2470       C  0.56685408  0.72332679  0.33429193     0.00600
C2471       C  0.63398421  0.74429963  0.25761120     0.39900
C2472       C  0.54233222  0.71612195  0.35759340     0.36600
C2473       C  0.57774794  0.67794413  0.39480141     0.36300
C2474       C  0.49668631  0.59065278  0.27028312     0.37000
N2475       N  0.65065064  0.74835754  0.23494581    -0.43800
N2476       N  0.52244270  0.71008539  0.37593956    -0.44200
N2477       N  0.98784465  0.57305995  0.24428763    -0.41600
N2478       N  0.59524985  0.69528909  0.41978007    -0.43000
H2479       H  0.54443453  0.61710308  0.39821196     0.13200
H2480       H  0.52840775  0.65191540  0.26809030     0.09700
H2481       H  0.59616036  0.68877052  0.27966464     0.10700
H2482       H  0.58361266  0.77272414  0.34116436     0.16500
C2483       C  0.83399290  0.91865631  0.31299606    -0.01700
C2484       C  0.81449715  0.90353038  0.34140220     0.06900
C2485       C  0.82774798  0.90310911  0.37911004    -0.07600
C2486       C  0.85988389  0.91776203  0.38883281     0.04400
C2487       C  0.87942232  0.93318269  0.36039010    -0.14900
C2488       C  0.86598744  0.93303205  0.32255949    -0.08200
C2489       C  0.78030756  0.88758221  0.33189160     0.05300
C2490       C  0.76566943  0.86233553  0.30363963    -0.09300
C2491       C  0.73371500  0.84735899  0.29262448     0.00300
C2492       C  0.71553149  0.85724680  0.31053272     0.00200
C2493       C  0.73029090  0.88247825  0.33897722    -0.12900
C2494       C  0.76228706  0.89769869  0.34957738     0.00600
C2495       C  0.72072892  0.82323280  0.26130574     0.39900
C2496       C  0.77615285  0.92430876  0.37766861     0.36600
C2497       C  0.82177297  0.92082354  0.27415688     0.36300
C2498       C  0.87204569  0.91578983  0.42779048     0.37000
N2499       N  0.71111663  0.80424775  0.23580197    -0.43800
N2500       N  0.78712466  0.94568323  0.40010498    -0.44200
N2501       N  0.88167606  0.91400750  0.45898600    -0.41600
N2502       N  0.81205586  0.92265212  0.24303988    -0.43000
H2503       H  0.88056996  0.94510391  0.30052961     0.13200
H2504       H  0.81290001  0.89113679  0.40095138     0.09700
H2505       H  0.77941503  0.85462471  0.28964018     0.10700
H2506       H  0.71673906  0.89040682  0.35300075     0.16500
C2507       C  0.58235824  0.88045311  0.25491166    -0.01700
C2508       C  0.58924779  0.90261443  0.28588246     0.06900
C2509       C  0.61265372  0.90806118  0.31607056    -0.07600
C2510       C  0.62845327  0.89112638  0.31653703     0.04400
C2511       C  0.62119224  0.86836825  0.28600498    -0.14900
C2512       C  0.59829419  0.86351570  0.25515517    -0.08200
C2513       C  0.57072766  0.91845189  0.28983673     0.05300
C2514       C  0.54097343  0.90110570  0.30022772    -0.09300
C2515       C  0.52515630  0.91594177  0.31251495     0.00300
C2516       C  0.53954900  0.94908911  0.31534396     0.00200
C2517       C  0.56818239  0.96600792  0.30122583    -0.12900
C2518       C  0.58367179  0.95101594  0.28848795     0.00600
C2519       C  0.49475332  0.89632345  0.32313857     0.39900
C2520       C  0.61310638  0.96954491  0.27477979     0.36600
C2521       C  0.55904974  0.87483999  0.22276675     0.36300
C2522       C  0.65047093  0.89602198  0.35009069     0.37000
N2523       N  0.97947953  0.87918142  0.34313465    -0.43800
N2524       N  0.63656062  0.98439730  0.26344673    -0.44200
N2525       N  0.66803111  0.89982954  0.37700720    -0.41600
N2526       N  0.54043447  0.87059639  0.19700721    -0.43000
H2527       H  0.59256417  0.84615398  0.23155189     0.13200
H2528       H  0.61771986  0.92476414  0.34024224     0.09700
H2529       H  0.53065798  0.87592136  0.30054509     0.10700
H2530       H  0.57933366  0.99126064  0.30179613     0.16500
C2531       C  0.89207745  0.61307132  0.21560936    -0.01700
C2532       C  0.89075418  0.59807016  0.18008537     0.06900
C2533       C  0.87225487  0.59844362  0.14693205    -0.07600
C2534       C  0.85605850  0.61473597  0.14845321     0.04400
C2535       C  0.85857603  0.63091358  0.18361875    -0.14900
C2536       C  0.87615790  0.62959547  0.21703619    -0.08200
C2537       C  0.90885429  0.58222136  0.17663469     0.05300
C2538       C  0.90067501  0.55458871  0.19527560    -0.09300
C2539       C  0.91541776  0.53729775  0.18971193     0.00300
C2540       C  0.93891248  0.54808750  0.16547729     0.00200
C2541       C  0.94795617  0.57639102  0.14824474    -0.12900
C2542       C  0.93301897  0.59349065  0.15345207     0.00600
C2543       C  0.90428563  0.50745676  0.20645353     0.39900
C2544       C  0.94223098  0.62194898  0.13384850     0.36600
C2545       C  0.91054601  0.61289787  0.25045514     0.36300
C2546       C  0.83823959  0.61574216  0.11336450     0.37000
N2547       N  0.89507003  0.48347366  0.21971730    -0.43800
N2548       N  0.94950878  0.64459977  0.11785570    -0.44200
N2549       N  0.82389708  0.61645388  0.08527977    -0.41600
N2550       N  0.92523177  0.61274755  0.27850280    -0.43000
H2551       H  0.87817641  0.64234231  0.24393217     0.13200
H2552       H  0.87103034  0.58652367  0.11972503     0.09700
H2553       H  0.88188046  0.54590286  0.21282871     0.10700
H2554       H  0.96605540  0.58457750  0.12969040     0.16500
C2555       C  0.95704627  0.84933559  0.14648033    -0.01700
C2556       C  0.94471712  0.83635600  0.18071349     0.06900
C2557       C  0.94984097  0.85579404  0.21364701    -0.07600
C2558       C  0.96470829  0.88804668  0.21180714     0.04400
C2559       C  0.97465834  0.90091102  0.17652658    -0.14900
C2560       C  0.97161298  0.88161873  0.14446585    -0.08200
C2561       C  0.92300174  0.80296541  0.18155814     0.05300
C2562       C  0.93022109  0.78568085  0.20829845    -0.09300
C2563       C  0.90898056  0.75454523  0.21230941     0.00300
C2564       C  0.88026014  0.74013294  0.18824184     0.00200
C2565       C  0.87313697  0.75780576  0.16178099    -0.12900
C2566       C  0.89387677  0.78917735  0.15898899     0.00600
C2567       C  0.91699285  0.73853318  0.24220348     0.39900
C2568       C  0.88406275  0.80706594  0.13436791     0.36600
C2569       C  0.95399621  0.82998852  0.11281973     0.36300
C2570       C  0.96616765  0.90694887  0.24495461     0.37000
N2571       N  0.92370590  0.72587738  0.26609851    -0.43800
N2572       N  0.87593496  0.82136310  0.11501220    -0.44200
N2573       N  0.96683240  0.92175896  0.27156128    -0.41600
N2574       N  0.95167051  0.81457658  0.08581634    -0.43000
H2575       H  0.97946910  0.89169467  0.11744270     0.13200
H2576       H  0.94027656  0.84565380  0.23993260     0.09700
H2577       H  0.95226661  0.79680964  0.22663033     0.10700
H2578       H  0.85130298  0.74712925  0.14305449     0.16500
C2579       C  0.65459858  0.60694074  0.11779454    -0.01700
C2580       C  0.67341985  0.61051552  0.15285720     0.06900
C2581       C  0.66008728  0.59486064  0.18502887    -0.07600
C2582       C  0.62856423  0.57434782  0.18215835     0.04400
C2583       C  0.60987590  0.56914138  0.14628347    -0.14900
C2584       C  0.62302807  0.58588759  0.11454787    -0.08200
C2585       C  0.70729116  0.62745196  0.15597274     0.05300
C2586       C  0.72404957  0.65168198  0.18517186    -0.09300
C2587       C  0.75589651  0.66439615  0.19395761     0.00300
C2588       C  0.77141858  0.65305423  0.17265527     0.00200
C2589       C  0.75464157  0.62974656  0.14231638    -0.12900
C2590       C  0.72282596  0.61649339  0.13433776     0.00600
C2591       C  0.77151538  0.68747812  0.22643673     0.39900
C2592       C  0.70652075  0.59010782  0.10591087     0.36600
C2593       C  0.66727443  0.62461204  0.08504749     0.36300
C2594       C  0.61653534  0.55741138  0.21573150     0.37000
N2595       N  0.78394781  0.70605420  0.25239408    -0.43800
N2596       N  0.69349551  0.56889524  0.08326400    -0.44200
N2597       N  0.60612257  0.03826221  0.24781003    -0.41600
N2598       N  0.67763214  0.63902031  0.05904405    -0.43000
H2599       H  0.60867646  0.58245234  0.08727876     0.13200
H2600       H  0.67461724  0.59757388  0.21199381     0.09700
H2601       H  0.71195496  0.65963196  0.20231378     0.10700
H2602       H  0.76635947  0.62117486  0.12539153     0.16500
C2603       C  0.87210753  0.58498638  0.46161846    -0.01700
C2604       C  0.90299236  0.59832843  0.47874770     0.06900
C2605       C  0.91548292  0.62516338  0.50431183    -0.07600
C2606       C  0.89867648  0.64187745  0.00283388     0.04400
C2607       C  0.86784455  0.62771673  0.49137251    -0.14900
C2608       C  0.85501276  0.59979407  0.46766453    -0.08200
C2609       C  0.92294604  0.58619479  0.46638307     0.05300
C2610       C  0.93078358  0.59107576  0.42852640    -0.09300
C2611       C  0.94411620  0.57533299  0.41197534     0.00300
C2612       C  0.95093312  0.55485830  0.43393761     0.00200
C2613       C  0.94521448  0.55184332  0.47305970    -0.12900
C2614       C  0.93079685  0.56691395  0.48912501     0.00600
C2615       C  0.94894734  0.57963411  0.37171069     0.39900
C2616       C  0.93479997  0.57590283  0.02188996     0.36600
C2617       C  0.85765820  0.55634613  0.43693368     0.36300
C2618       C  0.90912494  0.66603189  0.03381957     0.37000
N2619       N  0.95205322  0.58317579  0.33921706    -0.43800
N2620       N  0.92965786  0.57319890  0.05380295    -0.44200
N2621       N  0.91742949  0.68526041  0.05881610    -0.41600
N2622       N  0.84603023  0.53330022  0.41735796    -0.43000
H2623       H  0.83190500  0.59009559  0.45236248     0.13200
H2624       H  0.94004888  0.63824917  0.01315930     0.09700
H2625       H  0.92471288  0.60590276  0.41098120     0.10700
H2626       H  0.94992748  0.53595993  0.49020490     0.16500
C2627       C  0.90074510  0.83983995  0.42485905    -0.01700
C2628       C  0.91294672  0.82151715  0.44139042     0.06900
C2629       C  0.94502174  0.83472998  0.44975787    -0.07600
C2630       C  0.96495896  0.86582893  0.44266895     0.04400
C2631       C  0.95279462  0.88469500  0.42726641    -0.14900
C2632       C  0.92055425  0.87107941  0.41833990    -0.08200
C2633       C  0.89316733  0.78805453  0.44844959     0.05300
C2634       C  0.89641517  0.76551195  0.42756526    -0.09300
C2635       C  0.88052726  0.73397250  0.43523513     0.00300
C2636       C  0.86130040  0.72440792  0.46512896     0.00200
C2637       C  0.85705371  0.74683485  0.48496774    -0.12900
C2638       C  0.87270810  0.77842766  0.47683121     0.00600
C2639       C  0.88399831  0.71192177  0.41135651     0.39900
C2640       C  0.86809328  0.80058419  0.49876591     0.36600
C2641       C  0.86812020  0.82688352  0.41304130     0.36300
C2642       C  0.99764960  0.87740622  0.45146797     0.37000
N2643       N  0.88690770  0.69436163  0.39219001    -0.43800
N2644       N  0.86410058  0.81824582  0.51610341    -0.44200
N2645       N  0.02676603  0.88921935  0.94114911    -0.41600
N2646       N  0.84201497  0.81661854  0.40337368    -0.43000
H2647       H  0.91058428  0.88477784  0.40591584     0.13200
H2648       H  0.95835976  0.82284571  0.94774673     0.09700
H2649       H  0.91165185  0.77268935  0.40523012     0.10700
H2650       H  0.85257945  0.74324212  0.00863540     0.16500
C2651       C  0.71948518  0.58246313  0.44418792    -0.01700
C2652       C  0.70082338  0.58743274  0.46801804     0.06900
C2653       C  0.71539077  0.61054209  0.49919292    -0.07600
C2654       C  0.74763052  0.62912563  0.50583641     0.04400
C2655       C  0.76604532  0.62388448  0.48204911    -0.14900
C2656       C  0.75163910  0.60020341  0.45179477    -0.08200
C2657       C  0.66630295  0.56989820  0.45958355     0.05300
C2658       C  0.65038079  0.53700719  0.45569901    -0.09300
C2659       C  0.61835914  0.51994567  0.44422755     0.00300
C2660       C  0.60118174  0.53572486  0.43765061     0.00200
C2661       C  0.61714368  0.56862707  0.44313133    -0.12900
C2662       C  0.64915541  0.58563025  0.45342355     0.00600
C2663       C  0.60421208  0.48648670  0.43747307     0.39900
C2664       C  0.66390727  0.62162866  0.96291241     0.36600
C2665       C  0.70635984  0.56065806  0.41026523     0.36300
C2666       C  0.76126622  0.65347135  0.53701469     0.37000
N2667       N  0.59283080  0.45969079  0.43153366    -0.43800
N2668       N  0.67511613  0.64846532  0.96816804    -0.44200
N2669       N  0.77752409  0.66806443  0.06166704    -0.41600
N2670       N  0.69600415  0.54333370  0.38292809    -0.43000
H2671       H  0.76564510  0.59633657  0.43304498     0.13200
H2672       H  0.70148296  0.61446090  0.51799856     0.09700
H2673       H  0.66319779  0.52457601  0.46056688     0.10700
H2674       H  0.60474996  0.58145836  0.43797522     0.16500
C2675       C  0.85005540  0.64480825  0.49171918     0.03500
C2676       C  0.81815792  0.62843547  0.49351355    -0.12700
C2677       C  0.80020562  0.64309172  0.48679312     0.01000
C2678       C  0.81451507  0.67480952  0.47893884    -0.11200
C2679       C  0.84637139  0.69157176  0.47678773     0.03500
C2680       C  0.86392376  0.67648472  0.48392521    -0.10600
H2681       H  0.80695693  0.60379268  0.49852966     0.09100
H2682       H  0.80059899  0.68588043  0.47224804     0.06600
H2683       H  0.88829869  0.68912902  0.48140766     0.06400
C2684       C  0.85122897  0.65639642  0.69690305     0.03500
C2685       C  0.81945725  0.64518877  0.69019755    -0.12700
C2686       C  0.80797902  0.66604618  0.68511118     0.01000
C2687       C  0.82855804  0.69823895  0.68826885    -0.11200
C2688       C  0.86029767  0.70956352  0.69660307     0.03500
C2689       C  0.87147571  0.68856625  0.70039075    -0.10600
H2690       H  0.80373705  0.62023162  0.68790079     0.09100
H2691       H  0.81998324  0.71449524  0.68332550     0.06600
H2692       H  0.89611384  0.69727450  0.70415139     0.06400
C2693       C  0.63857144  0.85193295  0.77957479     0.03500
C2694       C  0.67072690  0.86452185  0.78438243    -0.12700
C2695       C  0.68406783  0.84551266  0.79293560     0.01000
C2696       C  0.66471243  0.81324886  0.79505365    -0.11200
C2697       C  0.63248969  0.80013934  0.78924629     0.03500
C2698       C  0.61966275  0.81963552  0.78141186    -0.10600
H2699       H  0.68546899  0.88943532  0.78303173     0.09100
H2700       H  0.67466725  0.79858378  0.80330466     0.06600
H2701       H  0.59488576  0.80981659  0.77854801     0.06400
C2702       C  0.63238189  0.83383359  0.55273953     0.03500
C2703       C  0.61716839  0.80161139  0.54375719    -0.12700
C2704       C  0.63385766  0.78594736  0.54007388     0.01000
C2705       C  0.66616092  0.80304742  0.54398152    -0.11200
C2706       C  0.68170815  0.83539209  0.55352576     0.03500
C2707       C  0.66462330  0.85077333  0.55695675    -0.10600
H2708       H  0.59225843  0.78849637  0.54156082     0.09100
H2709       H  0.67920726  0.79098068  0.54167755     0.06600
H2710       H  0.67641850  0.87570954  0.56455628     0.06400
O2711       O  0.55223102  0.49332286  0.91472722    -0.79800
O2712       O  0.95678318  0.52924331  0.87813006    -0.79800
O2713       O  0.52913787  0.56678882  0.87123562    -0.79800
O2714       O  0.96135539  0.97393980  0.96915973    -0.79800
O2715       O  0.48989791  0.55115608  0.82555682    -0.79900
O2716       O  0.51559900  0.99344090  0.96266429    -0.79800
O2717       O  0.98589460  0.53354983  0.93320060    -0.79800
O2718       O  0.55648790  0.53908783  0.91268741    -0.79800
C2719       C  0.56866753  0.52260448  0.92207043     1.09900
C2720       C  0.96916443  0.54205448  0.91226989     1.09800
C2721       C  0.51345924  0.57316806  0.84595762     1.09900
C2722       C  0.98894773  0.98290095  0.98296531     1.09800
O2723       O  0.00342341  0.93654288  0.92485169    -0.79800
O2724       O  0.98305329  0.49441787  0.79636389    -0.79900
O2725       O  0.55376293  0.00261070  0.84381111    -0.79800
O2726       O  0.92807999  0.96954529  0.90076853    -0.79800
O2727       O  0.93292010  0.96162850  0.84103962    -0.79800
O2728       O  0.51213965  0.95903660  0.85340160    -0.79800
O2729       O  0.96085795  0.93884913  0.90853343    -0.79800
O2730       O  0.52288760  0.53038811  0.80047451    -0.79800
Co2731     Co  0.51186782  0.97636513  0.90494567     1.51500
Co2732     Co  0.97068815  0.51059373  0.83835776     1.51700
Co2733     Co  0.53688339  0.53266427  0.85841287     1.51600
Co2734     Co  0.97286902  0.98571216  0.91912956     1.51500
O2735       O  0.99612310  0.00265160  0.87356528    -1.41700
C2736       C  0.97424247  0.92281679  0.91923771     1.09800
C2737       C  0.00033713  0.00884057  0.77893260     1.09900
C2738       C  0.53631456  0.97308856  0.83704176     1.09800
C2739       C  0.91578769  0.95609270  0.86732932     1.09800
O2740       O  0.56496646  0.54438744  0.66823713    -0.79800
O2741       O  0.95349180  0.52664601  0.62272150    -0.79800
O2742       O  0.53346803  0.55082953  0.58773552    -0.79800
O2743       O  0.97624729  0.98230069  0.71738531    -0.79800
O2744       O  0.48745731  0.53973918  0.56557410    -0.79900
O2745       O  0.52934474  0.02652638  0.72287149    -0.79800
O2746       O  0.96995465  0.52365936  0.68157685    -0.79800
O2747       O  0.56652922  0.52763223  0.60976021    -0.79800
C2748       C  0.57977801  0.54609751  0.64017104     1.09900
C2749       C  0.95778145  0.53471016  0.65827320     1.09800
C2750       C  0.51566391  0.55877270  0.57030900     1.09900
C2751       C  0.99983987  0.00470758  0.73691705     1.09800
O2752       O  0.00636937  0.95881585  0.69642428    -0.79800
O2753       O  0.97976474  0.48146978  0.55224412    -0.79900
O2754       O  0.51882962  0.96920350  0.59742581    -0.79800
O2755       O  0.92222624  0.95488720  0.66431759    -0.79800
O2756       O  0.93193236  0.95479765  0.60344383    -0.79800
O2757       O  0.55544455  0.98703435  0.64592272    -0.79800
O2758       O  0.96790125  0.94249091  0.64959801    -0.79800
O2759       O  0.52666724  0.50396860  0.53942906    -0.79800
Co2760     Co  0.53986833  0.00759263  0.68052951     1.51500
Co2761     Co  0.96987787  0.50408087  0.59415554     1.51700
Co2762     Co  0.52104915  0.50692393  0.59236136     1.51600
Co2763     Co  0.96480471  0.98027949  0.65978511     1.51500
O2764       O  0.00247094  0.00590840  0.63827749    -1.41700
C2765       C  0.98345199  0.93676014  0.67584581     1.09800
C2766       C  0.99788632  0.98676435  0.52552494     1.09900
C2767       C  0.54024291  0.96721610  0.61744494     1.09800
C2768       C  0.91241088  0.94709704  0.62837124     1.09800
C2769       C  0.57171565  0.70335297  0.50870841    -0.01700
C2770       C  0.57825567  0.68665699  0.53734842     0.06900
C2771       C  0.60451874  0.70211280  0.56483026    -0.07600
C2772       C  0.62388881  0.73426457  0.56503762     0.04400
C2773       C  0.61705887  0.75141786  0.53697699    -0.14900
C2774       C  0.59116997  0.73558554  0.50862930    -0.08200
C2775       C  0.55862035  0.65280201  0.53918483     0.05300
C2776       C  0.57050339  0.63348305  0.52970271    -0.09300
C2777       C  0.55545740  0.60206148  0.53717174     0.00300
C2778       C  0.52826774  0.58976244  0.55499172     0.00200
C2779       C  0.51483011  0.60838560  0.56108006    -0.12900
C2780       C  0.53004557  0.64002314  0.55377103     0.00600
C2781       C  0.56822716  0.58287860  0.52591219     0.39900
C2782       C  0.51707349  0.65932758  0.56371029     0.36600
C2783       C  0.54516384  0.68778124  0.47948305     0.36300
C2784       C  0.64953341  0.74910029  0.59565686     0.37000
N2785       N  0.07535387  0.56864367  0.50998165    -0.43800
N2786       N  0.50685185  0.67497167  0.57162108    -0.44200
N2787       N  0.67015044  0.76088587  0.62009205    -0.41600
N2788       N  0.52380800  0.67496230  0.45624310    -0.43000
H2789       H  0.58577141  0.74858717  0.48701927     0.13200
H2790       H  0.60948422  0.68901517  0.58675045     0.09700
H2791       H  0.59213132  0.64327531  0.51758129     0.10700
H2792       H  0.49342998  0.59872543  0.57349347     0.16500
C2793       C  0.76605910  0.86535819  0.54527943    -0.01700
C2794       C  0.78042191  0.88183594  0.58193063     0.06900
C2795       C  0.76211107  0.88400589  0.60842225    -0.07600
C2796       C  0.73005884  0.86913280  0.59973447     0.04400
C2797       C  0.71569375  0.85246844  0.56324173    -0.14900
C2798       C  0.73168718  0.84386197  0.04121371    -0.08200
C2799       C  0.81438464  0.89704247  0.59333796     0.05300
C2800       C  0.83406149  0.91900586  0.56962604    -0.09300
C2801       C  0.86601884  0.93461303  0.57986431     0.00300
C2802       C  0.87896003  0.92878864  0.61501328     0.00200
C2803       C  0.85932130  0.90698570  0.63892342    -0.12900
C2804       C  0.82733899  0.89089089  0.62821866     0.00600
C2805       C  0.88476241  0.95778787  0.55475415     0.39900
C2806       C  0.80834642  0.86796479  0.65334859     0.36800
C2807       C  0.77971273  0.85004932  0.02167956     0.36300
C2808       C  0.71241137  0.86991789  0.62963959     0.37000
N2809       N  0.90158815  0.48442101  0.54394252    -0.43800
N2810       N  0.79302103  0.84967882  0.67347904    -0.44200
N2811       N  0.69827528  0.87043599  0.65365116    -0.41600
N2812       N  0.79245598  0.84422223  0.99987030    -0.43000
H2813       H  0.71962697  0.82932206  0.01453236     0.13200
H2814       H  0.77290043  0.89699801  0.63637026     0.09700
H2815       H  0.82436279  0.92450388  0.54333863     0.10700
H2816       H  0.86898872  0.90244864  0.66600534     0.16500
C2817       C  0.58497872  0.92341745  0.62279910    -0.01700
C2818       C  0.57149383  0.90252928  0.58946147     0.06900
C2819       C  0.54646336  0.90155372  0.56593041    -0.07600
C2820       C  0.53528458  0.92179791  0.57448526     0.04400
C2821       C  0.54935108  0.94357191  0.60742675    -0.14900
C2822       C  0.57385697  0.94354331  0.63153175    -0.08200
C2823       C  0.58461937  0.88301663  0.57758886     0.05300
C2824       C  0.58168994  0.85826041  0.59983723    -0.09300
C2825       C  0.59643331  0.84136133  0.59156375     0.00300
C2826       C  0.61466129  0.84950714  0.56073737     0.00200
C2827       C  0.61698066  0.87379305  0.53801970    -0.12900
C2828       C  0.60198498  0.89042588  0.54608091     0.00600
C2829       C  0.59357038  0.81668666  0.61605920     0.39900
C2830       C  0.60505989  0.91452881  0.02624664     0.36600
C2831       C  0.61102303  0.92542791  0.64769930     0.36300
C2832       C  0.50930285  0.91929352  0.54904988     0.37000
N2833       N  0.59121757  0.79680643  0.63549755    -0.43800
N2834       N  0.60638439  0.93321211  0.00527677    -0.44200
N2835       N  0.98416232  0.90864939  0.52923892    -0.41600
N2836       N  0.63187359  0.92701458  0.66761231    -0.43000
H2837       H  0.58491916  0.95972294  0.65711034     0.13200
H2838       H  0.53593801  0.88518152  0.54047272     0.09700
H2839       H  0.56845139  0.85265541  0.62421058     0.10700
H2840       H  0.63114751  0.87930759  0.02013582     0.16500
C2841       C  0.56125106  0.66116804  0.86044194    -0.01700
C2842       C  0.55730153  0.67071429  0.82294639     0.06900
C2843       C  0.53726272  0.64796321  0.79333696    -0.07600
C2844       C  0.52170673  0.61614621  0.80030522     0.04400
C2845       C  0.52532859  0.60658152  0.83799468    -0.14900
C2846       C  0.54482075  0.62957225  0.86780006    -0.08200
C2847       C  0.57534535  0.70391726  0.81336184     0.05300
C2848       C  0.59480086  0.71123608  0.78424679    -0.09300
C2849       C  0.61290468  0.74223946  0.77512074     0.00300
C2850       C  0.61223500  0.76671666  0.79587260     0.00200
C2851       C  0.59202440  0.75928889  0.82407300    -0.12900
C2852       C  0.57340723  0.72825800  0.83256088     0.00600
C2853       C  0.63072720  0.74816216  0.74307285     0.39900
C2854       C  0.55188509  0.72192314  0.86026280     0.36600
C2855       C  0.58386614  0.68287687  0.89103432     0.36300
C2856       C  0.50462061  0.59384129  0.76744250     0.37000
N2857       N  0.64456959  0.75269204  0.71695823    -0.43800
N2858       N  0.53458650  0.71686217  0.88239054    -0.44200
N2859       N  0.00546557  0.58239289  0.74184482    -0.41600
N2860       N  0.60211614  0.70014619  0.91552089    -0.43000
H2861       H  0.54848111  0.62267235  0.89667294     0.13200
H2862       H  0.53462269  0.65501976  0.76424409     0.09700
H2863       H  0.59586599  0.69263175  0.76860957     0.10700
H2864       H  0.59090578  0.77786081  0.83971274     0.16500
C2865       C  0.83665118  0.91952230  0.80872892    -0.01700
C2866       C  0.81680516  0.90541224  0.83715976     0.06900
C2867       C  0.82976968  0.90664788  0.87563848    -0.07600
C2868       C  0.86184775  0.92227506  0.88619353     0.04400
C2869       C  0.88172179  0.93678914  0.85775649    -0.14900
C2870       C  0.86861952  0.93468585  0.81909237    -0.08200
C2871       C  0.78259504  0.88947821  0.82713194     0.05300
C2872       C  0.76806681  0.86443766  0.79850793    -0.09300
C2873       C  0.73620253  0.84983304  0.78679343     0.00300
C2874       C  0.71805192  0.86008209  0.80404531     0.00200
C2875       C  0.73257289  0.88481246  0.83312892    -0.12900
C2876       C  0.76441206  0.89945222  0.84477005     0.00600
C2877       C  0.72305376  0.82526606  0.75596258     0.39900
C2878       C  0.77789747  0.92514032  0.87421110     0.36600
C2879       C  0.82484816  0.92005237  0.76898761     0.36300
C2880       C  0.87358693  0.92255466  0.92621790     0.37000
N2881       N  0.71282523  0.80563059  0.73117637    -0.43800
N2882       N  0.78858296  0.94563000  0.89792602    -0.44200
N2883       N  0.88290509  0.92267865  0.95830514    -0.41600
N2884       N  0.81546171  0.92054547  0.73714186    -0.43000
H2885       H  0.88340513  0.94594381  0.79693727     0.13200
H2886       H  0.81472957  0.89544490  0.89756852     0.09700
H2887       H  0.78179481  0.85649553  0.78490579     0.10700
H2888       H  0.71892480  0.89268769  0.84698406     0.16500
C2889       C  0.58415846  0.88322360  0.74776454    -0.01700
C2890       C  0.59289462  0.90720022  0.77707497     0.06900
C2891       C  0.61787966  0.91420352  0.80547162    -0.07600
C2892       C  0.63354035  0.89719381  0.80602220     0.04400
C2893       C  0.62458044  0.87267735  0.77723074    -0.14900
C2894       C  0.60007723  0.86626016  0.74794475    -0.08200
C2895       C  0.57482844  0.92337681  0.78201094     0.05300
C2896       C  0.54577765  0.90648832  0.79450270    -0.09300
C2897       C  0.53153198  0.92182296  0.81009078     0.00300
C2898       C  0.54654181  0.95500633  0.81335572     0.00200
C2899       C  0.57424120  0.97154751  0.79701339    -0.12900
C2900       C  0.58842023  0.95608353  0.78167959     0.00600
C2901       C  0.50245353  0.90261228  0.82433597     0.39900
C2902       C  0.61765747  0.97429452  0.76732145     0.36600
C2903       C  0.55887328  0.87556361  0.71758225     0.36300
C2904       C  0.65709693  0.90394646  0.83834576     0.37000
N2905       N  0.97412668  0.88513903  0.82515643    -0.43800
N2906       N  0.64109002  0.98875319  0.75577411    -0.44200
N2907       N  0.67587421  0.90947773  0.86441260    -0.41600
N2908       N  0.53861915  0.86948004  0.69338964    -0.43000
H2909       H  0.59297701  0.84754435  0.72566972     0.13200
H2910       H  0.62427445  0.93220389  0.82852302     0.09700
H2911       H  0.53515249  0.88126661  0.79460987     0.10700
H2912       H  0.58584696  0.99684546  0.79801973     0.16500
C2913       C  0.90393521  0.62380193  0.72512932    -0.01700
C2914       C  0.89740625  0.60325390  0.69252435     0.06900
C2915       C  0.87324993  0.59754138  0.66338706    -0.07600
C2916       C  0.85688037  0.61362011  0.66496843     0.04400
C2917       C  0.86405374  0.63506207  0.69701408    -0.14900
C2918       C  0.88702819  0.63930618  0.72731698    -0.08200
C2919       C  0.91653831  0.58879811  0.68678614     0.05300
C2920       C  0.91704396  0.56730738  0.71273044    -0.09300
C2921       C  0.93217388  0.55063542  0.70552279     0.00300
C2922       C  0.94682895  0.55545924  0.67163327     0.00200
C2923       C  0.94785030  0.57834405  0.64716303    -0.12900
C2924       C  0.93289972  0.59502180  0.65441623     0.00600
C2925       C  0.93060083  0.52750198  0.73197321     0.39900
C2926       C  0.93420724  0.61794587  0.62780344     0.36600
C2927       C  0.92918082  0.63094943  0.75518039     0.36300
C2928       C  0.83488673  0.60966556  0.63178715     0.37000
N2929       N  0.92938473  0.50906702  0.75329959    -0.43800
N2930       N  0.93526858  0.63623740  0.60636405    -0.44200
N2931       N  0.81740407  0.60653341  0.60507752    -0.41600
N2932       N  0.94952387  0.63673310  0.77909924    -0.43000
H2933       H  0.89273753  0.65593128  0.75183301     0.13200
H2934       H  0.86823043  0.58157996  0.63836199     0.09700
H2935       H  0.90457854  0.56268873  0.73776005     0.10700
H2936       H  0.95957459  0.58249553  0.62156693     0.16500
C2937       C  0.96327428  0.85312451  0.66273258    -0.01700
C2938       C  0.94536740  0.84040622  0.69325940     0.06900
C2939       C  0.94373490  0.86018048  0.72109770    -0.07600
C2940       C  0.95753663  0.89220221  0.71700115     0.04400
C2941       C  0.97321825  0.90453326  0.68461134    -0.14900
C2942       C  0.97659969  0.88507657  0.65822938    -0.08200
C2943       C  0.92438380  0.80666212  0.69347511     0.05300
C2944       C  0.92751936  0.79075584  0.72543528    -0.09300
C2945       C  0.90647845  0.75918263  0.72760703     0.00300
C2946       C  0.88209557  0.74322731  0.69710923     0.00200
C2947       C  0.87883395  0.75939986  0.66550243    -0.12900
C2948       C  0.89943541  0.79098570  0.66374003     0.00600
C2949       C  0.90972790  0.74406053  0.76194241     0.39900
C2950       C  0.89375717  0.80710121  0.63198104     0.36600
C2951       C  0.96730682  0.83371604  0.63502163     0.36300
C2952       C  0.95294898  0.91123611  0.74458941     0.37000
N2953       N  0.91232283  0.73195369  0.78945694    -0.43800
N2954       N  0.88925810  0.82012973  0.60667367    -0.44200
N2955       N  0.94871825  0.92574630  0.76716300    -0.41600
N2956       N  0.97063695  0.81824545  0.61279691    -0.43000
H2957       H  0.98874129  0.89464856  0.63345354     0.13200
H2958       H  0.92996012  0.85032743  0.74459922     0.09700
H2959       H  0.94615826  0.80317224  0.74888227     0.10700
H2960       H  0.86012710  0.74728961  0.64204730     0.16500
C2961       C  0.65762240  0.60854864  0.61867496    -0.01700
C2962       C  0.67674326  0.60808278  0.65126670     0.06900
C2963       C  0.66387061  0.58786589  0.68039071    -0.07600
C2964       C  0.63225610  0.56767816  0.67722526     0.04400
C2965       C  0.61300575  0.56774657  0.64445798    -0.14900
C2966       C  0.62583202  0.58819716  0.61538957    -0.08200
C2967       C  0.71052670  0.62640419  0.65484443     0.05300
C2968       C  0.72602158  0.65089503  0.68388306    -0.09300
C2969       C  0.75786268  0.66457893  0.69390952     0.00300
C2970       C  0.77462815  0.65393958  0.67408510     0.00200
C2971       C  0.75909269  0.63028251  0.64384257    -0.12900
C2972       C  0.72721753  0.61618086  0.63449714     0.00600
C2973       C  0.77225067  0.68762584  0.72656374     0.39900
C2974       C  0.71183695  0.58966309  0.60619550     0.36600
C2975       C  0.67009749  0.62980622  0.58871437     0.36300
C2976       C  0.62038073  0.54586370  0.70683945     0.37000
N2977       N  0.78383281  0.70606426  0.75275265    -0.43800
N2978       N  0.69938501  0.56820138  0.58386546    -0.44200
N2979       N  0.61821215  0.04872592  0.73748523    -0.41600
N2980       N  0.68004084  0.64697845  0.56481126    -0.43000
H2981       H  0.61101859  0.58843306  0.59041955     0.13200
H2982       H  0.67875608  0.58723741  0.70512672     0.09700
H2983       H  0.71293601  0.65811502  0.70015519     0.10700
H2984       H  0.77178811  0.62211948  0.62827359     0.16500
C2985       C  0.87839086  0.59270646  0.94563405    -0.01700
C2986       C  0.90804906  0.60500440  0.96692694     0.06900
C2987       C  0.91754301  0.62897950  0.99623895    -0.07600
C2988       C  0.89806336  0.63972493  0.51109235     0.04400
C2989       C  0.86997675  0.63103706  0.97945313    -0.14900
C2990       C  0.85984036  0.60582988  0.95187576    -0.08200
C2991       C  0.92975684  0.59439995  0.95640666     0.05300
C2992       C  0.93677664  0.59720656  0.91809337    -0.09300
C2993       C  0.95143385  0.58205119  0.90371215     0.00300
C2994       C  0.96053974  0.56440516  0.92841079     0.00200
C2995       C  0.95669251  0.56461615  0.96804019    -0.12900
C2996       C  0.94109027  0.57915565  0.98206240     0.00600
C2997       C  0.95497273  0.58366612  0.86282007     0.39900
C2998       C  0.92184180  0.56024887  0.52759485     0.36600
C2999       C  0.86659537  0.56687426  0.91661073     0.36300
C3000       C  0.91157370  0.66675092  0.53849461     0.37000
N3001       N  0.95711401  0.58485551  0.82987895    -0.43800
N3002       N  0.91413629  0.55470981  0.55818381    -0.44200
N3003       N  0.92229101  0.68834931  0.56055612    -0.41600
N3004       N  0.85713622  0.54622268  0.89330956    -0.43000
H3005       H  0.83782891  0.59717224  0.93389344     0.13200
H3006       H  0.93908926  0.63521285  0.51805224     0.09700
H3007       H  0.92891271  0.60969839  0.89853374     0.10700
H3008       H  0.96365740  0.55136529  0.98742297     0.16500
C3009       C  0.90355506  0.84423115  0.92645741    -0.01700
C3010       C  0.91641230  0.82504846  0.93683915     0.06900
C3011       C  0.94844284  0.83767116  0.94007860    -0.07600
C3012       C  0.96782497  0.86913055  0.93393232     0.04400
C3013       C  0.95508760  0.88874582  0.92418401    -0.14900
C3014       C  0.92280785  0.87566901  0.92031887    -0.08200
C3015       C  0.89697474  0.79156355  0.94372660     0.05300
C3016       C  0.89544620  0.76878188  0.91753116    -0.09300
C3017       C  0.87878860  0.73700380  0.92390883     0.00300
C3018       C  0.86337023  0.72755700  0.95724639     0.00200
C3019       C  0.86418950  0.75030562  0.98288573    -0.12900
C3020       C  0.88099180  0.78213595  0.97653224     0.00600
C3021       C  0.87764949  0.71456406  0.89560086     0.39900
C3022       C  0.88262536  0.80477687  0.00487539     0.36600
C3023       C  0.87064142  0.83203894  0.92128926     0.36300
C3024       C  0.00054881  0.88032140  0.93792811     0.37000
N3025       N  0.87680968  0.69671286  0.87278726    -0.43800
N3026       N  0.88399353  0.82302831  0.02749723    -0.44200
N3027       N  0.02384156  0.88656836  0.45840662    -0.41600
N3028       N  0.84427056  0.82227612  0.91715361    -0.43000
H3029       H  0.91238559  0.89003846  0.91266891     0.13200
H3030       H  0.95454741  0.82054482  0.46186636     0.09700
H3031       H  0.90750494  0.77591487  0.89213429     0.10700
H3032       H  0.84216314  0.73980797  0.50767081     0.16500
C3033       C  0.71981642  0.59021738  0.93203920    -0.01700
C3034       C  0.70239541  0.59145203  0.96085922     0.06900
C3035       C  0.71822130  0.61107592  0.99497091    -0.07600
C3036       C  0.75053067  0.62937893  0.00026652     0.04400
C3037       C  0.76773638  0.62710912  0.97198874    -0.14900
C3038       C  0.75207813  0.60733860  0.93822286    -0.08200
C3039       C  0.66781102  0.57328862  0.95508232     0.05300
C3040       C  0.65257109  0.54075535  0.94628507    -0.09300
C3041       C  0.62035034  0.52337652  0.93682631     0.00300
C3042       C  0.60236227  0.53839198  0.93708905     0.00200
C3043       C  0.61768391  0.57074320  0.94765081    -0.12900
C3044       C  0.64985132  0.58815130  0.95611307     0.00600
C3045       C  0.60683893  0.49069957  0.92449967     0.39900
C3046       C  0.66400455  0.61933405  0.45512281     0.36600
C3047       C  0.70518150  0.57324085  0.89472388     0.36300
C3048       C  0.76550601  0.65067371  0.03450672     0.37000
N3049       N  0.59606869  0.46458131  0.91424653    -0.43800
N3050       N  0.67595088  0.64633022  0.45644442    -0.44200
N3051       N  0.77217735  0.67316071  0.56179381    -0.41600
N3052       N  0.69356015  0.55997393  0.86460643    -0.43000
H3053       H  0.76515714  0.60614014  0.91591393     0.13200
H3054       H  0.70526732  0.61245094  0.01726966     0.09700
H3055       H  0.66606400  0.52900678  0.94549932     0.10700
H3056       H  0.60459488  0.58296630  0.94767144     0.16500
loop_ 
_geom_bond_atom_site_label_1 
_geom_bond_atom_site_label_2 
_geom_bond_distance 
_geom_bond_site_symmetry_2 
_ccdc_geom_bond_type 
C1            C2   1.409       .  A
C1            C6   1.402       .  A
C1          C697   1.491       .  S
C2            C3   1.409       .  A
C2            H7   1.084       .  S
C3            C4   1.408       .  A
C3          C745   1.490       .  S
C4            C5   1.405       .  A
C4            H8   1.084       .  S
C5            C6   1.402       .  A
C5          C726   1.484       .  S
C6            H9   1.084       .  S
C10          C11   1.397       .  A
C10          C15   1.393       .  A
C10         C243   1.468       .  S
C11          C12   1.404       .  A
C11          H16   1.084       .  S
C12          C13   1.401       .  A
C12         C296   1.480       .  S
C13          C14   1.403       .  A
C13          H17   1.082       .  S
C14          C15   1.395       .  A
C14         C272   1.476       .  S
C15          H18   1.084       .  S
C19          C20   1.405       .  A
C19          C24   1.402       .  A
C19         C219   1.489       .  S
C20          C21   1.407       .  A
C20          H25   1.084       .  S
C21          C22   1.410       .  A
C21         C200   1.495       .  S
C22          C23   1.411       .  A
C22          H26   1.083       .  S
C23          C24   1.406       .  A
C23         C176   1.494       .  S
C24          H27   1.084       .  S
C28          C29   1.394       .  A
C28          C33   1.401       .  A
C28         C152   1.470       .  S
C29          C30   1.394       .  A
C29          H34   1.085       .  S
C30          C31   1.401       .  A
C30          C99   1.467       .  S
C31          C32   1.403       .  A
C31          H35   1.084       .  S
C32          C33   1.405       .  A
C32         C123   1.481       .  S
C33          H36   1.084       .  S
O37          C45   1.268   1_565  A
O37        Co821   2.030       .  S
O38          C46   1.278       .  A
O38         Co58   2.022       .  S
O39          C47   1.258       .  A
O39         Co59   1.955       .  S
O40          C48   1.264       .  A
O40         Co60   1.893       .  S
O41          C47   1.275   1_655  A
O41       Co1586   2.035       .  S
O42        C1576   1.292   1_455  A
O42         Co57   2.094       .  S
O43          C46   1.270       .  A
O43        Co824   1.979   1_545  S
O44          C45   1.257       .  A
O44         Co59   1.973       .  S
C45         C368   1.503       .  S
C46         C320   1.488       .  S
C47         C171   1.489       .  S
C48         C474   1.461       .  S
C48        O1570   1.293       .  A
O49          C62   1.270       .  A
O49       Co1585   1.908       .  S
O50         C827   1.261   1_565  A
O50         Co58   1.958   1_565  S
O51          C64   1.282       .  A
O51        Co823   2.038       .  S
O52          C65   1.263       .  A
O52         Co60   2.008       .  S
O53          C65   1.259       .  A
O53        Co822   1.978       .  S
O54          C64   1.267       .  A
O54         Co57   1.968       .  S
O55          C62   1.293       .  A
O55         Co60   2.087       .  S
O56        C2355   1.275   1_455  A
O56         Co59   2.032       .  S
Co57        O801   2.026       .  S
Co57       O1577   1.908       .  S
Co57       O1589   2.018   1_455  S
Co58       O1569   2.027       .  S
Co58        O817   1.972   1_545  S
Co58        O825   2.030   1_545  S
Co59        O815   2.032   1_545  S
Co59       O2353   2.022   1_445  S
Co60        O807   1.980       .  S
Co60         O61   2.005       .  S
O61       Co1585   2.018       .  S
O61        Co822   2.036       .  S
O61       Co2351   2.021       .  S
C62         C339   1.496       .  S
C63          C77   1.464       .  S
C63         O814   1.258       .  A
C63        O2348   1.275       .  A
C64         C224   1.499       .  S
C65         C195   1.488       .  S
O66          C74   1.262       .  A
O66        Co850   1.958   1_545  S
O67          C75   1.251       .  A
O67         Co87   1.977       .  S
O68          C76   1.241       .  A
O68         Co88   1.940       .  S
O69          C77   1.271       .  A
O69         Co89   2.010       .  S
O70          C76   1.248   1_655  A
O70       Co1615   1.986   1_545  S
O71        C1605   1.262   1_455  A
O71         Co86   1.974       .  S
O72          C75   1.244       .  A
O72        Co853   1.950   1_545  S
O73          C74   1.273       .  A
O73         Co88   2.012       .  S
C74         C291   1.467       .  S
C75         C248   1.457       .  S
C76         C104   1.460       .  S
C77        O1599   1.261       .  A
O78          C91   1.264       .  A
O78       Co1614   2.005       .  S
O79         C856   1.298       .  A
O79         Co87   2.067   1_565  S
O80          C93   1.259       .  A
O80        Co852   1.981       .  S
O81          C94   1.271       .  A
O81         Co89   1.898       .  S
O82          C94   1.294       .  A
O82        Co851   2.062       .  S
O83          C93   1.264       .  A
O83         Co86   1.994       .  S
O84          C91   1.257       .  A
O84         Co89   1.966       .  S
O85        C2384   1.269   1_445  A
O85         Co88   1.894       .  S
Co86        O830   1.965       .  S
Co86       O1606   2.014       .  S
Co86       O1618   2.086       .  S
Co87       O1598   1.990       .  S
Co87        O846   2.070   1_545  S
Co87        O854   2.246       .  S
Co88        O844   1.982   1_545  S
Co88       O2382   1.936       .  S
Co89        O836   1.954       .  S
Co89         O90   1.929       .  S
O90       Co1614   2.083       .  S
O90        Co851   2.244       .  S
O90       Co2380   1.937       .  S
C91         C267   1.453       .  S
C92         C430   1.462   1_554  S
C92         O843   1.296       .  A
C92        O2377   1.269       .  A
C93         C147   1.483       .  S
C94         C128   1.479       .  S
C95          C96   1.404       .  A
C95         C100   1.396       .  A
C95         C109   1.444   1_554  S
C96          C97   1.400       .  A
C96         C101   1.464       .  S
C97          C98   1.394       .  A
C97         H116   1.085       .  S
C98          C99   1.410       .  A
C98         C110   1.446       .  S
C99         C100   1.404       .  A
C100        H115   1.085   1_554  S
C101        C102   1.396       .  A
C101        C106   1.409       .  A
C102        C103   1.389       .  A
C102        H117   1.085       .  S
C103        C104   1.411       .  A
C103        C107   1.445       .  S
C104        C105   1.401       .  A
C105        C106   1.397       .  A
C105        H118   1.082   1_455  S
C106        C108   1.443       .  S
C107       N1639   1.157       .  T
C108        N112   1.157       .  T
C109        N114   1.157       .  T
C110        N113   1.157       .  T
N111       C1635   1.157       .  T
C119        C120   1.411       .  A
C119        C506   1.401       .  A
C119        C515   1.444       .  S
C120        C121   1.402       .  A
C120        C125   1.483       .  S
C121        C122   1.396       .  A
C121        H140   1.085       .  S
C122        C123   1.413       .  A
C122        C134   1.445       .  S
C123        C506   1.405       .  A
C124        C501   1.403       .  A
C124        C505   1.403       .  A
C124        H139   1.085       .  S
C125        C126   1.401       .  A
C125        C130   1.412       .  A
C126        C127   1.399       .  A
C126        H141   1.085       .  S
C127        C128   1.417       .  A
C127        C131   1.446       .  S
C128        C129   1.403       .  A
C129        C130   1.400       .  A
C129        H142   1.085       .  S
C130        C132   1.445       .  S
C131        N899   1.158       .  T
C132        N136   1.157       .  T
C133        C501   1.444       .  S
C133        N138   1.157       .  T
C134        N137   1.157       .  T
N135        C895   1.158       .  T
C143        C144   1.408       .  A
C143        C148   1.392       .  A
C143        C157   1.446       .  S
C144        C145   1.402       .  A
C144        C149   1.476       .  S
C145        C146   1.399       .  A
C145        H164   1.085       .  S
C146        C147   1.416       .  A
C146        C158   1.444       .  S
C147        C148   1.409       .  A
C148        H163   1.085       .  S
C149        C150   1.401       .  A
C149        C154   1.412       .  A
C150        C151   1.395       .  A
C150        H165   1.085       .  S
C151        C152   1.412       .  A
C151        C155   1.445       .  S
C152        C153   1.400       .  A
C153        C154   1.397       .  A
C153        H548   1.085       .  S
C154        C538   1.444       .  S
C155        N159   1.157       .  T
C156        C536   1.441       .  S
C156        N160   1.156       .  T
C157        N162   1.157       .  T
C158       N1689   1.157   1_455  T
N161       C1686   1.157       .  T
H166        C535   1.085       .  S
C167        C168   1.410       .  A
C167        C172   1.399       .  A
C167        C181   1.444       .  S
C168        C169   1.403       .  A
C168        C173   1.487       .  S
C169        C170   1.403       .  A
C169        H188   1.085       .  S
C170        C171   1.415       .  A
C170        C182   1.440   1_455  S
C171        C172   1.408       .  A
C172        H187   1.085       .  S
C173        C174   1.403       .  A
C173        C178   1.408       .  A
C174        C175   1.403       .  A
C174        H189   1.085       .  S
C175        C176   1.414       .  A
C175        C179   1.442       .  S
C176        C177   1.409       .  A
C177        C178   1.402       .  A
C177        H190   1.084       .  S
C178        C180   1.444       .  S
C179        N183   1.157       .  T
C180        N184   1.157       .  T
C181        N186   1.157       .  T
C182       N1713   1.156       .  T
N185       C1710   1.156       .  T
C191        C192   1.411       .  A
C191        C196   1.400       .  A
C191        C205   1.444       .  S
C192        C193   1.406       .  A
C192        C197   1.493       .  S
C193        C194   1.406       .  A
C193        H212   1.085       .  S
C194        C195   1.415       .  A
C194        C206   1.444       .  S
C195        C196   1.406       .  A
C196        H211   1.084       .  S
C197        C198   1.404       .  A
C197        C202   1.411       .  A
C198        C199   1.404       .  A
C198        H213   1.085       .  S
C199        C200   1.414       .  A
C199        C203   1.442       .  S
C200        C201   1.407       .  A
C201        C202   1.402       .  A
C201        H214   1.084       .  S
C202        C204   1.444       .  S
C203        N207   1.157       .  T
C204        N208   1.157       .  T
C205        N210   1.157       .  T
C206        N209   1.157       .  T
C215        C216   1.410       .  A
C215        C220   1.406       .  A
C215        C229   1.444       .  S
C216        C217   1.403       .  A
C216        C221   1.488       .  S
C217        C218   1.400       .  A
C217        H236   1.085       .  S
C218        C219   1.414       .  A
C218        C230   1.445       .  S
C219        C220   1.408       .  A
C220        H235   1.085       .  S
C221        C222   1.401       .  A
C221        C226   1.407       .  A
C222        C223   1.404       .  A
C222        H237   1.085       .  S
C223        C224   1.422       .  A
C223        C227   1.444   1_455  S
C224        C225   1.410       .  A
C225        C226   1.402       .  A
C225        H238   1.084       .  S
C226        C228   1.443       .  S
C227       N1759   1.157       .  T
C228        N232   1.157       .  T
C229        N234   1.157       .  T
C230        N233   1.157       .  T
N231       C1755   1.157       .  T
C239        C240   1.404       .  A
C239        C244   1.393       .  A
C239        C253   1.444       .  S
C240        C241   1.400       .  A
C240        C245   1.463       .  S
C241        C242   1.394       .  A
C241        H260   1.085       .  S
C242        C243   1.411       .  A
C242        C254   1.445       .  S
C243        C244   1.404       .  A
C244        H259   1.085       .  S
C245        C246   1.399       .  A
C245        C250   1.407       .  A
C246        C247   1.395       .  A
C246        H261   1.085       .  S
C247        C248   1.410       .  A
C247        C251   1.445       .  S
C248        C249   1.399       .  A
C249        C250   1.392       .  A
C249        H262   1.083       .  S
C250        C252   1.445       .  S
C251        N255   1.157   1_545  T
C252        N256   1.157       .  T
C253        N258   1.157       .  T
C254        N257   1.158       .  T
C263        C264   1.409       .  A
C263        C268   1.393       .  A
C263        C277   1.444       .  S
C264        C265   1.397       .  A
C264        C269   1.464       .  S
C265        C266   1.390       .  A
C265        H284   1.085       .  S
C266        C267   1.409       .  A
C266        C278   1.441       .  S
C267        C268   1.399       .  A
C268        H283   1.084       .  S
C269        C270   1.397       .  A
C269        C274   1.408       .  A
C270        C271   1.395       .  A
C270        H285   1.085       .  S
C271        C272   1.417       .  A
C271        C275   1.445       .  S
C272        C273   1.403       .  A
C273        C274   1.389       .  A
C273        H286   1.084       .  S
C274        C276   1.445       .  S
C275        N279   1.157       .  T
C276        N280   1.157       .  T
C277        N282   1.157       .  T
C278        N281   1.156       .  T
C287        C288   1.409       .  A
C287        C292   1.399       .  A
C287        C301   1.443       .  S
C288        C289   1.398       .  A
C288        C293   1.472       .  S
C289        C290   1.391       .  A
C289        H308   1.085       .  S
C290        C291   1.413       .  A
C290        C302   1.446       .  S
C291        C292   1.403       .  A
C292        H307   1.083       .  S
C293        C294   1.401       .  A
C293        C298   1.408       .  A
C294        C295   1.397       .  A
C294        H309   1.085       .  S
C295        C296   1.415       .  A
C295        C299   1.444       .  S
C296        C297   1.405       .  A
C297        C298   1.392       .  A
C297        H310   1.085       .  S
C298        C300   1.445       .  S
C299        N303   1.157       .  T
C300        N304   1.157       .  T
C301        N306   1.157       .  T
C302       N1069   1.157       .  T
N305       C1066   1.157       .  T
C311        C312   1.410       .  A
C311        C316   1.397       .  A
C311        C325   1.445       .  S
C312        C313   1.404       .  A
C312        C317   1.488       .  S
C313        C696   1.408       .  A
C313        H714   1.085       .  S
C314        C695   1.407   1_554  A
C314        C697   1.416   1_554  A
C314        C326   1.444       .  S
C315        C316   1.405       .  A
C315        C696   1.418       .  A
C315        C383   1.495       .  S
C316        H331   1.084       .  S
C317        C318   1.400       .  A
C317        C322   1.409       .  A
C318        C319   1.398       .  A
C318        H333   1.085       .  S
C319        C320   1.416       .  A
C319        C323   1.443       .  S
C320        C321   1.410       .  A
C321        C322   1.407       .  A
C321        H334   1.085       .  S
C322        C706   1.442       .  S
C323        N327   1.157       .  T
C324        C704   1.442   1_554  S
C324        N328   1.157       .  T
C325        N330   1.157       .  T
C326        N329   1.157       .  T
H332        C695   1.085   1_554  S
C335        C336   1.409       .  A
C335        C340   1.402       .  A
C335        C349   1.444       .  S
C336        C337   1.404       .  A
C336        C341   1.490       .  S
C337        C338   1.403       .  A
C337        H738   1.085       .  S
C338        C339   1.417       .  A
C338        C350   1.444       .  S
C339        C340   1.411       .  A
C340        H355   1.084       .  S
C341        C342   1.401       .  A
C341        C346   1.413       .  A
C342        C343   1.401       .  A
C342        H357   1.085       .  S
C343        C344   1.417       .  A
C343        C347   1.444       .  S
C344        C345   1.406       .  A
C344        C387   1.494       .  S
C345        C346   1.406       .  A
C345        H740   1.085       .  S
C346        C348   1.443       .  S
C347        N351   1.157       .  T
C348        N352   1.157       .  T
C349        N354   1.157       .  T
C350        N735   1.157       .  T
N353        C732   1.157       .  T
H356        C719   1.085       .  S
H358        C727   1.085   1_554  S
C359        C360   1.416       .  A
C359        C364   1.402       .  A
C359        C373   1.444       .  S
C360        C361   1.411       .  A
C360        C365   1.506       .  S
C361        C362   1.407       .  A
C361        H380   1.083       .  S
C362        C363   1.410       .  A
C362        C374   1.444       .  S
C363        C364   1.403       .  A
C363        C385   1.489       .  S
C364        H379   1.085       .  S
C365        C366   1.409       .  A
C365        C370   1.413       .  A
C366        C367   1.409       .  A
C366        H381   1.084       .  S
C367        C368   1.417       .  A
C367        C371   1.443   1_545  S
C368        C369   1.411       .  A
C369        C370   1.403       .  A
C369        H382   1.084       .  S
C370        C754   1.445       .  S
C371        N375   1.157       .  T
C372        C752   1.444       .  S
C372        N376   1.157       .  T
C373        N378   1.157       .  T
C374        N759   1.157       .  T
N377        C756   1.157       .  T
C383        C384   1.407       .  A
C383        C388   1.406       .  A
C384        C385   1.405       .  A
C384        H389   1.084       .  S
C385        C386   1.407       .  A
C386        C387   1.408       .  A
C386        H390   1.084       .  S
C387        C388   1.407       .  A
C388        H391   1.083       .  S
C392        C393   1.398       .  A
C392        C397   1.395       .  A
C392        C625   1.469       .  S
C393        C394   1.404       .  A
C393        H398   1.084       .  S
C394        C395   1.401       .  A
C394        C678   1.479       .  S
C395        C396   1.401       .  A
C395        H399   1.083       .  S
C396        C397   1.395       .  A
C396        C654   1.472       .  S
C397        H400   1.084       .  S
C401        C402   1.405       .  A
C401        C406   1.402       .  A
C401        C601   1.487       .  S
C402        C403   1.407       .  A
C402        H407   1.084       .  S
C403        C404   1.408       .  A
C403        C582   1.494       .  S
C404        C405   1.407       .  A
C404        H408   1.083       .  S
C405        C406   1.404       .  A
C405        C558   1.487       .  S
C406        H409   1.084       .  S
C410        C411   1.396       .  A
C410        C415   1.403       .  A
C410        C534   1.477       .  S
C411        C412   1.399       .  A
C411        H416   1.084       .  S
C412        C413   1.405       .  A
C412        C481   1.479       .  S
C413        C414   1.404       .  A
C413        H417   1.084       .  S
C414        C415   1.405       .  A
C414        C505   1.485       .  S
C415        H418   1.084       .  S
O419        C427   1.268   1_565  A
O419      Co1203   2.027       .  S
O420        C428   1.276       .  A
O420       Co440   2.008       .  S
O421        C429   1.258       .  A
O421       Co441   1.955       .  S
O422        C430   1.264       .  A
O422       Co442   1.891       .  S
O423        C429   1.276   1_655  A
O423      Co1968   2.039       .  S
O424       C1958   1.298   1_455  A
O424       Co439   2.116       .  S
O425        C428   1.274       .  A
O425      Co1206   1.987   1_545  S
O426        C427   1.258       .  A
O426       Co441   1.975       .  S
C427        C750   1.502       .  S
C428        C702   1.489       .  S
C429        C553   1.491       .  S
C430       O1952   1.295       .  A
O431        C444   1.269       .  A
O431      Co1967   1.904       .  S
O432       C1209   1.259   1_565  A
O432       Co440   1.948   1_565  S
O433        C446   1.279       .  A
O433      Co1205   2.027       .  S
O434        C447   1.262       .  A
O434       Co442   2.006       .  S
O435        C447   1.260       .  A
O435      Co1204   1.980       .  S
O436        C446   1.269       .  A
O436       Co439   1.977       .  S
O437        C444   1.295       .  A
O437       Co442   2.095       .  S
O438       C2737   1.275       .  A
O438       Co441   2.037       .  S
Co439      O1183   2.017       .  S
Co439      O1959   1.893       .  S
Co439      O1971   2.014       .  S
Co440      O1951   2.033       .  S
Co440      O1199   1.982   1_545  S
Co440      O1207   2.029       .  S
Co441      O1197   2.027       .  S
Co441      O2735   2.026   1_455  S
Co442      O1189   1.983       .  S
Co442       O443   2.007       .  S
O443      Co1967   2.018       .  S
O443      Co1204   2.034       .  S
O443      Co2733   2.024       .  S
C444        C721   1.496       .  S
C445        C459   1.466       .  S
C445       O1196   1.257       .  A
C445       O2730   1.275       .  A
C446        C606   1.498       .  S
C447        C577   1.489       .  S
O448        C456   1.264       .  A
O448      Co1232   1.964       .  S
O449        C457   1.253       .  A
O449       Co469   1.977       .  S
O450        C458   1.242       .  A
O450       Co470   1.948       .  S
O451        C459   1.271       .  A
O451       Co471   2.008       .  S
O452        C458   1.250   1_655  A
O452      Co1997   1.993   1_545  S
O453       C1987   1.262       .  A
O453       Co468   1.978       .  S
O454        C457   1.243       .  A
O454      Co1235   1.953   1_545  S
O455        C456   1.271       .  A
O455       Co470   2.005       .  S
C456        C673   1.463       .  S
C457        C630   1.464       .  S
C458        C486   1.467       .  S
C459       O1981   1.263       .  A
O460        C473   1.265       .  A
O460      Co1996   2.009       .  S
O461       C1238   1.294       .  A
O461       Co469   2.060   1_565  S
O462        C475   1.260       .  A
O462      Co1234   1.986       .  S
O463        C476   1.271       .  A
O463       Co471   1.907       .  S
O464        C476   1.294       .  A
O464      Co1233   2.064       .  S
O465        C475   1.264       .  A
O465       Co468   2.004       .  S
O466        C473   1.258       .  A
O466       Co471   1.967       .  S
O467       C2766   1.269   1_445  A
O467       Co470   1.896       .  S
Co468      O1212   1.957       .  S
Co468      O1988   2.009       .  S
Co468      O2000   2.088       .  S
Co469      O1980   1.989       .  S
Co469      O1228   2.058   1_545  S
Co469      O1236   2.244       .  S
Co470      O1226   1.987   1_545  S
Co470      O2764   1.937       .  S
Co471      O1218   1.953       .  S
Co471       O472   1.929       .  S
O472      Co1996   2.087       .  S
O472      Co1233   2.248       .  S
O472      Co2762   1.937       .  S
C473        C649   1.453       .  S
C474       O1225   1.293       .  A
C474       O2759   1.270       .  A
C475        C529   1.491       .  S
C476        C510   1.484       .  S
C477        C478   1.405       .  A
C477        C482   1.399       .  A
C477        C491   1.444       .  S
C478        C479   1.399       .  A
C478        C483   1.470       .  S
C479        C480   1.394       .  A
C479        H498   1.085       .  S
C480        C481   1.414       .  A
C480        C492   1.445       .  S
C481        C482   1.408       .  A
C482        H497   1.085       .  S
C483        C484   1.397       .  A
C483        C488   1.410       .  A
C484        C485   1.392       .  A
C484        H499   1.086       .  S
C485        C486   1.411       .  A
C485        C489   1.444       .  S
C486        C487   1.400       .  A
C487        C488   1.398       .  A
C487        H500   1.088   1_455  S
C488        C490   1.444       .  S
C489       N2021   1.157       .  T
C490        N494   1.157       .  T
C491        N496   1.157       .  T
C492        N495   1.157       .  T
N493       C2017   1.157       .  T
C501        C502   1.416       .  A
C502        C503   1.406       .  A
C502        C507   1.495       .  S
C503        C504   1.400       .  A
C503        H522   1.085       .  S
C504        C505   1.413       .  A
C504        C516   1.445       .  S
C506        H521   1.085       .  S
C507        C508   1.404       .  A
C507        C512   1.416       .  A
C508        C509   1.401       .  A
C508        H523   1.085       .  S
C509        C510   1.416       .  A
C509        C513   1.446       .  S
C510        C511   1.404       .  A
C511        C512   1.404       .  A
C511        H524   1.085       .  S
C512        C514   1.444       .  S
C513       N1281   1.158       .  T
C514        N518   1.157       .  T
C515        N520   1.157   1_554  T
C516        N519   1.157       .  T
N517       C1277   1.157       .  T
C525        C526   1.406       .  A
C525        C530   1.396       .  A
C525        C539   1.446       .  S
C526        C527   1.401       .  A
C526        C531   1.479       .  S
C527        C528   1.403       .  A
C527        H546   1.084       .  S
C528        C529   1.419       .  A
C528        C540   1.444       .  S
C529        C530   1.410       .  A
C530        H545   1.084       .  S
C531        C532   1.401       .  A
C531        C536   1.409       .  A
C532        C533   1.399       .  A
C532        H547   1.085       .  S
C533        C534   1.415       .  A
C533        C537   1.445       .  S
C534        C535   1.401       .  A
C535        C536   1.398       .  A
C537        N541   1.157       .  T
C538        N542   1.157       .  T
C539        N544   1.157       .  T
C540       N2071   1.157   1_455  T
N543       C2068   1.157       .  T
C549        C550   1.412       .  A
C549        C554   1.401       .  A
C549        C563   1.445       .  S
C550        C551   1.405       .  A
C550        C555   1.494       .  S
C551        C552   1.404       .  A
C551        H570   1.085       .  S
C552        C553   1.415       .  A
C552        C564   1.443       .  S
C553        C554   1.408       .  A
C554        H569   1.085       .  S
C555        C556   1.406       .  A
C555        C560   1.413       .  A
C556        C557   1.404       .  A
C556        H571   1.085       .  S
C557        C558   1.411       .  A
C557        C561   1.443       .  S
C558        C559   1.405       .  A
C559        C560   1.401       .  A
C559        H572   1.085       .  S
C560        C562   1.444       .  S
C561        N565   1.157       .  T
C562        N566   1.157       .  T
C563        N568   1.157       .  T
C564       N2095   1.157   1_455  T
N567       C2092   1.156       .  T
C573        C574   1.411       .  A
C573        C578   1.400       .  A
C573        C587   1.445       .  S
C574        C575   1.405       .  A
C574        C579   1.492       .  S
C575        C576   1.405       .  A
C575        H594   1.085       .  S
C576        C577   1.416       .  A
C576        C588   1.444       .  S
C577        C578   1.407       .  A
C578        H593   1.085       .  S
C579        C580   1.404       .  A
C579        C584   1.411       .  A
C580        C581   1.403       .  A
C580        H595   1.085       .  S
C581        C582   1.414       .  A
C581        C585   1.443       .  S
C582        C583   1.408       .  A
C583        C584   1.402       .  A
C583        H596   1.084       .  S
C584        C586   1.444       .  S
C585        N589   1.157       .  T
C586        N590   1.157       .  T
C587        N592   1.157       .  T
C588        N591   1.157       .  T
C597        C598   1.411       .  A
C597        C602   1.407       .  A
C597        C611   1.444       .  S
C598        C599   1.402       .  A
C598        C603   1.486       .  S
C599        C600   1.397       .  A
C599        H618   1.085       .  S
C600        C601   1.413       .  A
C600        C612   1.445       .  S
C601        C602   1.408       .  A
C602        H617   1.085       .  S
C603        C604   1.401       .  A
C603        C608   1.407       .  A
C604        C605   1.403       .  A
C604        H619   1.085       .  S
C605        C606   1.421       .  A
C605        C609   1.443       .  S
C606        C607   1.411       .  A
C607        C608   1.401       .  A
C607        H620   1.084       .  S
C608        C610   1.444       .  S
C609       N2141   1.157   1_455  T
C610        N614   1.157       .  T
C611        N616   1.157       .  T
C612        N615   1.157       .  T
N613       C2137   1.157       .  T
C621        C622   1.407       .  A
C621        C626   1.395       .  A
C621        C635   1.444       .  S
C622        C623   1.403       .  A
C622        C627   1.472       .  S
C623        C624   1.394       .  A
C623        H642   1.085       .  S
C624        C625   1.411       .  A
C624        C636   1.446       .  S
C625        C626   1.404       .  A
C626        H641   1.085       .  S
C627        C628   1.403       .  A
C627        C632   1.409       .  A
C628        C629   1.398       .  A
C628        H643   1.085       .  S
C629        C630   1.411       .  A
C629        C633   1.444       .  S
C630        C631   1.398       .  A
C631        C632   1.389       .  A
C631        H644   1.081       .  S
C632        C634   1.444       .  S
C633        N637   1.157       .  T
C634        N638   1.157       .  T
C635        N640   1.157       .  T
C636        N639   1.158       .  T
C645        C646   1.410       .  A
C645        C650   1.393       .  A
C645        C659   1.444       .  S
C646        C647   1.399       .  A
C646        C651   1.469       .  S
C647        C648   1.392       .  A
C647        H666   1.085       .  S
C648        C649   1.408       .  A
C648        C660   1.442       .  S
C649        C650   1.397       .  A
C650        H665   1.082       .  S
C651        C652   1.400       .  A
C651        C656   1.410       .  A
C652        C653   1.396       .  A
C652        H667   1.085       .  S
C653        C654   1.414       .  A
C653        C657   1.445       .  S
C654        C655   1.401       .  A
C655        C656   1.391       .  A
C655        H668   1.085       .  S
C656        C658   1.445       .  S
C657        N661   1.157       .  T
C658        N662   1.157       .  T
C659        N664   1.157       .  T
C660        N663   1.156       .  T
C669        C670   1.408       .  A
C669        C674   1.399       .  A
C669        C683   1.444       .  S
C670        C671   1.399       .  A
C670        C675   1.470       .  S
C671        C672   1.392       .  A
C671        H690   1.085       .  S
C672        C673   1.410       .  A
C672        C684   1.445       .  S
C673        C674   1.402       .  A
C674        H689   1.082       .  S
C675        C676   1.400       .  A
C675        C680   1.407       .  A
C676        C677   1.397       .  A
C676        H691   1.085       .  S
C677        C678   1.414       .  A
C677        C681   1.444       .  S
C678        C679   1.406       .  A
C679        C680   1.395       .  A
C679        H692   1.085       .  S
C680        C682   1.445       .  S
C681        N685   1.157       .  T
C682        N686   1.157       .  T
C683        N688   1.157       .  T
C684       N1451   1.157       .  T
N687       C1448   1.157       .  T
C693        C694   1.415       .  A
C693        C698   1.399       .  A
C693        C707   1.445       .  S
C694        C695   1.405       .  A
C694        C699   1.494       .  S
C696        C708   1.444       .  S
C697        C698   1.402       .  A
C698        H713   1.085       .  S
C699        C700   1.401       .  A
C699        C704   1.412       .  A
C700        C701   1.397       .  A
C700        H715   1.085       .  S
C701        C702   1.418       .  A
C701        C705   1.445       .  S
C702        C703   1.408       .  A
C703        C704   1.407       .  A
C703        H716   1.085       .  S
C705        N709   1.157       .  T
C706        N710   1.157       .  T
C707        N712   1.157       .  T
C708        N711   1.157       .  T
C717        C718   1.408       .  A
C717        C722   1.402       .  A
C717        C731   1.444       .  S
C718        C719   1.403       .  A
C718        C723   1.488       .  S
C719        C720   1.404       .  A
C720        C721   1.418       .  A
C720        C732   1.444       .  S
C721        C722   1.411       .  A
C722        H737   1.084       .  S
C723        C724   1.402       .  A
C723        C728   1.412       .  A
C724        C725   1.401       .  A
C724        H739   1.085       .  S
C725        C726   1.414       .  A
C725        C729   1.445       .  S
C726        C727   1.403       .  A
C727        C728   1.404       .  A
C728        C730   1.443   1_556  S
C729        N733   1.157       .  T
C730        N734   1.157       .  T
C731        N736   1.157       .  T
C741        C742   1.415       .  A
C741        C746   1.403       .  A
C741        C755   1.444       .  S
C742        C743   1.409       .  A
C742        C747   1.503       .  S
C743        C744   1.408   1_556  A
C743        H762   1.083   1_556  S
C744        C745   1.412   1_554  A
C744        C756   1.444       .  S
C745        C746   1.403       .  A
C746        H761   1.085       .  S
C747        C748   1.408       .  A
C747        C752   1.412       .  A
C748        C749   1.408       .  A
C748        H763   1.085       .  S
C749        C750   1.417       .  A
C749        C753   1.444   1_545  S
C750        C751   1.411       .  A
C751        C752   1.403       .  A
C751        H764   1.084       .  S
C753        N757   1.157       .  T
C754        N758   1.157       .  T
C755        N760   1.157       .  T
C765        C766   1.404       .  A
C765        C770   1.407       .  A
C765       C1461   1.490       .  S
C766        C767   1.399       .  A
C766        H771   1.084       .  S
C767        C768   1.403       .  A
C767       C1509   1.475       .  S
C768        C769   1.404       .  A
C768        H772   1.084       .  S
C769        C770   1.404       .  A
C769       C1490   1.480       .  S
C770        H773   1.083       .  S
C774        C775   1.396       .  A
C774        C779   1.395       .  A
C774       C1007   1.475       .  S
C775        C776   1.403       .  A
C775        H780   1.084       .  S
C776        C777   1.408       .  A
C776       C1060   1.489       .  S
C777        C778   1.411       .  A
C777        H781   1.083       .  S
C778        C779   1.399       .  A
C778       C1036   1.484       .  S
C779        H782   1.084       .  S
C783        C784   1.405       .  A
C783        C788   1.403       .  A
C783        C983   1.490       .  S
C784        C785   1.407       .  A
C784        H789   1.084       .  S
C785        C786   1.405       .  A
C785        C964   1.489       .  S
C786        C787   1.407       .  A
C786        H790   1.084       .  S
C787        C788   1.406       .  A
C787        C940   1.489       .  S
C788        H791   1.084       .  S
C792        C793   1.396       .  A
C792        C797   1.400       .  A
C792        C916   1.477       .  S
C793        C794   1.400       .  A
C793        H798   1.084       .  S
C794        C795   1.407       .  A
C794        C863   1.482       .  S
C795        C796   1.406       .  A
C795        H799   1.083       .  S
C796        C797   1.406       .  A
C796        C887   1.489       .  S
C797        H800   1.084       .  S
O801        C809   1.266       .  A
O802        C810   1.276       .  A
O802       Co822   2.013       .  S
O803        C811   1.258       .  A
O803       Co823   1.957       .  S
O804        C812   1.266       .  A
O804       Co824   1.896       .  S
O805        C811   1.273   1_655  A
O805      Co2350   2.026       .  S
O806       C2340   1.293   1_455  A
O806       Co821   2.099       .  S
O807        C810   1.271       .  A
O808        C809   1.253       .  A
O808       Co823   1.963       .  S
C809       C1132   1.496       .  S
C810       C1084   1.485       .  S
C811        C935   1.484       .  S
C812       C1238   1.462       .  S
C812       O2334   1.292       .  A
O813        C826   1.269       .  A
O813      Co2349   1.909       .  S
O814       Co822   1.947       .  S
O815        C828   1.280       .  A
O816        C829   1.264       .  A
O816       Co824   2.007       .  S
O817        C829   1.258       .  A
O818        C828   1.269       .  A
O818       Co821   1.972       .  S
O819        C826   1.294       .  A
O819       Co824   2.094       .  S
O820       C1591   1.273   1_455  A
O820       Co823   2.024       .  S
Co821      O2341   1.906       .  S
Co821      O2353   2.017   1_455  S
Co822      O2333   2.032       .  S
Co823      O1589   2.015   1_455  S
Co824       O825   2.006       .  S
O825      Co2349   2.017       .  S
O825      Co1587   2.013   1_565  S
C826       C1103   1.498       .  S
C827        C841   1.464       .  S
C827       O1584   1.273       .  A
C828        C988   1.500       .  S
C829        C959   1.484       .  S
O830        C838   1.265       .  A
O831        C839   1.252       .  A
O831       Co851   1.983       .  S
O832        C840   1.244       .  A
O832       Co852   1.950       .  S
O833        C841   1.269   1_565  A
O833       Co853   2.010       .  S
O834        C840   1.249   1_655  A
O834      Co2379   1.988       .  S
O835       C2369   1.262   1_445  A
O835       Co850   1.974   1_545  S
O836        C839   1.243       .  A
O837        C838   1.275       .  A
O837       Co852   2.016       .  S
C838       C1055   1.474       .  S
C839       C1012   1.464       .  S
C840        C868   1.466       .  S
C841       O2363   1.261       .  A
O842        C855   1.267       .  A
O842      Co2378   2.016   1_565  S
O843       Co851   2.066       .  S
O844        C857   1.260       .  A
O845        C858   1.268       .  A
O845       Co853   1.891       .  S
O846        C858   1.296       .  A
O847        C857   1.266       .  A
O847       Co850   2.007       .  S
O848        C855   1.257       .  A
O848       Co853   1.971       .  S
O849       C1620   1.271       .  A
O849       Co852   1.905       .  S
Co850      O2370   2.005       .  S
Co850      O2382   2.085   1_565  S
Co851      O2362   1.990       .  S
Co852      O1618   1.938       .  S
Co853       O854   1.929   1_565  S
O854      Co2378   2.083       .  S
O854      Co1616   1.934       .  S
C855       C1031   1.460       .  S
C856       C1194   1.466   1_554  S
C856       O1613   1.271   1_565  A
C857        C911   1.490       .  S
C858        C892   1.480       .  S
C859        C860   1.405       .  A
C859        C864   1.400       .  A
C859        C873   1.444   1_554  S
C860        C861   1.400       .  A
C860        C865   1.472       .  S
C861        C862   1.393       .  A
C861        H880   1.086       .  S
C862        C863   1.414       .  A
C862        C874   1.445       .  S
C863        C864   1.410       .  A
C864        H879   1.085   1_554  S
C865        C866   1.398       .  A
C865        C870   1.411       .  A
C866        C867   1.391       .  A
C866        H881   1.085       .  S
C867        C868   1.411       .  A
C867        C871   1.444       .  S
C868        C869   1.401       .  A
C869        C870   1.400       .  A
C869        H882   1.083   1_455  S
C870        C872   1.444       .  S
C871       N2403   1.157       .  T
C872        N876   1.157       .  T
C873        N878   1.157       .  T
C874        N877   1.157       .  T
N875       C2399   1.157       .  T
C883        C884   1.413       .  A
C883       C1270   1.403       .  A
C883       C1279   1.445       .  S
C884        C885   1.401       .  A
C884        C889   1.488       .  S
C885        C886   1.398       .  A
C885        H904   1.085       .  S
C886        C887   1.417       .  A
C886        C898   1.445       .  S
C887       C1270   1.406       .  A
C888       C1265   1.402       .  A
C888       C1269   1.404       .  A
C888        H903   1.085       .  S
C889        C890   1.402       .  A
C889        C894   1.413       .  A
C890        C891   1.399       .  A
C890        H905   1.085       .  S
C891        C892   1.415       .  A
C891        C895   1.445       .  S
C892        C893   1.405       .  A
C893        C894   1.401       .  A
C893        H906   1.085       .  S
C894        C896   1.445       .  S
C896        N900   1.157       .  T
C897       C1265   1.445       .  S
C897        N902   1.158       .  T
C898        N901   1.157       .  T
C907        C908   1.408       .  A
C907        C912   1.396       .  A
C907        C921   1.446       .  S
C908        C909   1.403       .  A
C908        C913   1.482       .  S
C909        C910   1.403       .  A
C909        H928   1.085       .  S
C910        C911   1.418       .  A
C910        C922   1.443       .  S
C911        C912   1.409       .  A
C912        H927   1.085       .  S
C913        C914   1.402       .  A
C913        C918   1.411       .  A
C914        C915   1.398       .  A
C914        H929   1.085       .  S
C915        C916   1.414       .  A
C915        C919   1.445       .  S
C916        C917   1.401       .  A
C917        C918   1.400       .  A
C917       H1312   1.085       .  S
C918       C1302   1.443       .  S
C919        N923   1.157       .  T
C920       C1300   1.443       .  S
C920        N924   1.157       .  T
C921        N926   1.157       .  T
C922       N2453   1.157   1_455  T
N925       C2450   1.157       .  T
H930       C1299   1.085       .  S
C931        C932   1.411       .  A
C931        C936   1.400       .  A
C931        C945   1.444       .  S
C932        C933   1.403       .  A
C932        C937   1.486       .  S
C933        C934   1.400       .  A
C933        H952   1.085       .  S
C934        C935   1.415       .  A
C934        C946   1.443       .  S
C935        C936   1.407       .  A
C936        H951   1.085       .  S
C937        C938   1.404       .  A
C937        C942   1.410       .  A
C938        C939   1.400       .  A
C938        H953   1.085       .  S
C939        C940   1.413       .  A
C939        C943   1.443       .  S
C940        C941   1.408       .  A
C941        C942   1.400       .  A
C941        H954   1.085       .  S
C942        C944   1.444       .  S
C943        N947   1.157       .  T
C944        N948   1.157       .  T
C945        N950   1.157       .  T
C946       N2477   1.157   1_455  T
N949       C2474   1.156       .  T
C955        C956   1.411       .  A
C955        C960   1.397       .  A
C955        C969   1.445       .  S
C956        C957   1.406       .  A
C956        C961   1.489       .  S
C957        C958   1.405       .  A
C957        H976   1.085       .  S
C958        C959   1.414       .  A
C958        C970   1.444       .  S
C959        C960   1.406       .  A
C960        H975   1.085       .  S
C961        C962   1.405       .  A
C961        C966   1.410       .  A
C962        C963   1.403       .  A
C962        H977   1.085       .  S
C963        C964   1.413       .  A
C963        C967   1.443       .  S
C964        C965   1.405       .  A
C965        C966   1.399       .  A
C965        H978   1.083       .  S
C966        C968   1.444       .  S
C967        N971   1.157       .  T
C968        N972   1.157       .  T
C969        N974   1.157       .  T
C970        N973   1.158       .  T
C979        C980   1.410       .  A
C979        C984   1.406       .  A
C979        C993   1.444       .  S
C980        C981   1.402       .  A
C980        C985   1.487       .  S
C981        C982   1.400       .  A
C981       H1000   1.085       .  S
C982        C983   1.415       .  A
C982        C994   1.445       .  S
C983        C984   1.408       .  A
C984        H999   1.085       .  S
C985        C986   1.400       .  A
C985        C990   1.407       .  A
C986        C987   1.403       .  A
C986       H1001   1.085       .  S
C987        C988   1.421       .  A
C987        C991   1.444       .  S
C988        C989   1.412       .  A
C989        C990   1.404       .  A
C989       H1002   1.084       .  S
C990        C992   1.444       .  S
C991       N2523   1.157   1_455  T
C992        N996   1.157       .  T
C993        N998   1.157       .  T
C994        N997   1.157       .  T
N995       C2519   1.157       .  T
C1003      C1004   1.406       .  A
C1003      C1008   1.398       .  A
C1003      C1017   1.444       .  S
C1004      C1005   1.397       .  A
C1004      C1009   1.468       .  S
C1005      C1006   1.392       .  A
C1005      H1024   1.085       .  S
C1006      C1007   1.414       .  A
C1006      C1018   1.444       .  S
C1007      C1008   1.406       .  A
C1008      H1023   1.085       .  S
C1009      C1010   1.400       .  A
C1009      C1014   1.408       .  A
C1010      C1011   1.399       .  A
C1010      H1025   1.085       .  S
C1011      C1012   1.413       .  A
C1011      C1015   1.444       .  S
C1012      C1013   1.399       .  A
C1013      C1014   1.392       .  A
C1013      H1026   1.083       .  S
C1014      C1016   1.445       .  S
C1015      N1019   1.157       .  T
C1016      N1020   1.157       .  T
C1017      N1022   1.157       .  T
C1018      N1021   1.157       .  T
C1027      C1028   1.408       .  A
C1027      C1032   1.397       .  A
C1027      C1041   1.443       .  S
C1028      C1029   1.400       .  A
C1028      C1033   1.472       .  S
C1029      C1030   1.393       .  A
C1029      H1048   1.085       .  S
C1030      C1031   1.408       .  A
C1030      C1042   1.443       .  S
C1031      C1032   1.400       .  A
C1032      H1047   1.079       .  S
C1033      C1034   1.398       .  A
C1033      C1038   1.410       .  A
C1034      C1035   1.397       .  A
C1034      H1049   1.085       .  S
C1035      C1036   1.418       .  A
C1035      C1039   1.444       .  S
C1036      C1037   1.404       .  A
C1037      C1038   1.397       .  A
C1037      H1050   1.085       .  S
C1038      C1040   1.445       .  S
C1039      N1043   1.157       .  T
C1040      N1044   1.157       .  T
C1041      N1046   1.157       .  T
C1042      N1045   1.157       .  T
C1051      C1052   1.409       .  A
C1051      C1056   1.400       .  A
C1051      C1065   1.442       .  S
C1052      C1053   1.399       .  A
C1052      C1057   1.478       .  S
C1053      C1054   1.397       .  A
C1053      H1072   1.085       .  S
C1054      C1055   1.415       .  A
C1054      C1066   1.445       .  S
C1055      C1056   1.403       .  A
C1056      H1071   1.083       .  S
C1057      C1058   1.403       .  A
C1057      C1062   1.406       .  A
C1058      C1059   1.404       .  A
C1058      H1073   1.085       .  S
C1059      C1060   1.414       .  A
C1059      C1063   1.443       .  S
C1060      C1061   1.407       .  A
C1061      C1062   1.393       .  A
C1061      H1074   1.082       .  S
C1062      C1064   1.446       .  S
C1063      N1067   1.157       .  T
C1064      N1068   1.157       .  T
C1065      N1070   1.157       .  T
C1075      C1076   1.410       .  A
C1075      C1080   1.398       .  A
C1075      C1089   1.445       .  S
C1076      C1077   1.402       .  A
C1076      C1081   1.485       .  S
C1077      C1460   1.406       .  A
C1077      H1478   1.085       .  S
C1078      C1459   1.405       .  A
C1078      C1461   1.416       .  A
C1078      C1090   1.443   1_556  S
C1079      C1460   1.416       .  A
C1079      C1080   1.406       .  A
C1079      C1147   1.493       .  S
C1080      H1095   1.084       .  S
C1081      C1082   1.399       .  A
C1081      C1086   1.409       .  A
C1082      C1083   1.395       .  A
C1082      H1097   1.086       .  S
C1083      C1084   1.416       .  A
C1083      C1087   1.443       .  S
C1084      C1085   1.409       .  A
C1085      C1086   1.407       .  A
C1085      H1098   1.085       .  S
C1086      C1470   1.441       .  S
C1087      N1091   1.157       .  T
C1088      C1468   1.443   1_554  S
C1088      N1092   1.157       .  T
C1089      N1094   1.157       .  T
C1090      N1093   1.157       .  T
H1096      C1459   1.085   1_554  S
C1099      C1100   1.410       .  A
C1099      C1104   1.402       .  A
C1099      C1113   1.444       .  S
C1100      C1101   1.404       .  A
C1100      C1105   1.493       .  S
C1101      C1102   1.405       .  A
C1101      H1502   1.085       .  S
C1102      C1103   1.418       .  A
C1102      C1114   1.444       .  S
C1103      C1104   1.411       .  A
C1104      H1119   1.084       .  S
C1105      C1106   1.403       .  A
C1105      C1110   1.413       .  A
C1106      C1107   1.403       .  A
C1106      H1121   1.085       .  S
C1107      C1108   1.414       .  A
C1107      C1111   1.444       .  S
C1108      C1109   1.406       .  A
C1108      C1151   1.492       .  S
C1109      C1110   1.405       .  A
C1109      H1504   1.085       .  S
C1110      C1112   1.443       .  S
C1111      N1115   1.157       .  T
C1112      N1116   1.157       .  T
C1113      N1118   1.157       .  T
C1114      N1499   1.157       .  T
N1117      C1496   1.158       .  T
H1120      C1483   1.085       .  S
H1122      C1491   1.085   1_554  S
C1123      C1124   1.414       .  A
C1123      C1128   1.400       .  A
C1123      C1137   1.445       .  S
C1124      C1125   1.408       .  A
C1124      C1129   1.496       .  S
C1125      C1126   1.404       .  A
C1125      H1144   1.083       .  S
C1126      C1127   1.410       .  A
C1126      C1138   1.444       .  S
C1127      C1128   1.403       .  A
C1127      C1149   1.484       .  S
C1128      H1143   1.085       .  S
C1129      C1130   1.409       .  A
C1129      C1134   1.410       .  A
C1130      C1131   1.406       .  A
C1130      H1145   1.085       .  S
C1131      C1132   1.414       .  A
C1131      C1135   1.442       .  S
C1132      C1133   1.411       .  A
C1133      C1134   1.398       .  A
C1133      H1146   1.084       .  S
C1134      C1518   1.445       .  S
C1135      N1139   1.157       .  T
C1136      C1516   1.444       .  S
C1136      N1140   1.157       .  T
C1137      N1142   1.157       .  T
C1138      N1523   1.157       .  T
N1141      C1520   1.157       .  T
C1147      C1148   1.404       .  A
C1147      C1152   1.408       .  A
C1148      C1149   1.402       .  A
C1148      H1153   1.084       .  S
C1149      C1150   1.406       .  A
C1150      C1151   1.406       .  A
C1150      H1154   1.084       .  S
C1151      C1152   1.408       .  A
C1152      H1155   1.083       .  S
C1156      C1157   1.396       .  A
C1156      C1161   1.394       .  A
C1156      C1389   1.467       .  S
C1157      C1158   1.401       .  A
C1157      H1162   1.084       .  S
C1158      C1159   1.400       .  A
C1158      C1442   1.476       .  S
C1159      C1160   1.402       .  A
C1159      H1163   1.083       .  S
C1160      C1161   1.396       .  A
C1160      C1418   1.474       .  S
C1161      H1164   1.084       .  S
C1165      C1166   1.408       .  A
C1165      C1170   1.401       .  A
C1165      C1365   1.488       .  S
C1166      C1167   1.408       .  A
C1166      H1171   1.084       .  S
C1167      C1168   1.407       .  A
C1167      C1346   1.491       .  S
C1168      C1169   1.406       .  A
C1168      H1172   1.084       .  S
C1169      C1170   1.404       .  A
C1169      C1322   1.486       .  S
C1170      H1173   1.084       .  S
C1174      C1175   1.395       .  A
C1174      C1179   1.400       .  A
C1174      C1298   1.476       .  S
C1175      C1176   1.400       .  A
C1175      H1180   1.084       .  S
C1176      C1177   1.406       .  A
C1176      C1245   1.484       .  S
C1177      C1178   1.405       .  A
C1177      H1181   1.083       .  S
C1178      C1179   1.406       .  A
C1178      C1269   1.484       .  S
C1179      H1182   1.084       .  S
O1183      C1191   1.264       .  A
O1184      C1192   1.274       .  A
O1184     Co1204   2.004       .  S
O1185      C1193   1.258       .  A
O1185     Co1205   1.952       .  S
O1186      C1194   1.263       .  A
O1186     Co1206   1.888       .  S
O1187      C1193   1.275   1_655  A
O1187     Co2732   2.034       .  S
O1188      C2722   1.296   1_455  A
O1188     Co1203   2.106       .  S
O1189      C1192   1.272       .  A
O1190      C1191   1.256       .  A
O1190     Co1205   1.968       .  S
C1191      C1514   1.490       .  S
C1192      C1466   1.484       .  S
C1193      C1317   1.484       .  S
C1194      O2716   1.298       .  A
O1195      C1208   1.267       .  A
O1195     Co2731   1.895       .  S
O1196     Co1204   1.942       .  S
O1197      C1210   1.279   1_545  A
O1198      C1211   1.262       .  A
O1198     Co1206   2.002       .  S
O1199      C1211   1.261       .  A
O1200      C1210   1.268       .  A
O1200     Co1203   1.974       .  S
O1201      C1208   1.296       .  A
O1201     Co1206   2.097       .  S
O1202      C1973   1.273       .  A
O1202     Co1205   2.030       .  S
Co1203     O2723   1.900       .  S
Co1203     O2735   2.013   1_465  S
Co1204     O2715   2.038       .  S
Co1205     O1971   2.022       .  S
Co1206     O1207   2.000   1_565  S
O1207     Co2731   2.014   1_545  S
O1207     Co1969   2.023       .  S
C1208      C1485   1.490       .  S
C1209      C1223   1.462       .  S
C1209      O1966   1.273       .  A
C1210      C1370   1.499       .  S
C1211      C1341   1.487       .  S
O1212      C1220   1.264       .  A
O1213      C1221   1.251       .  A
O1213     Co1233   1.974       .  S
O1214      C1222   1.242       .  A
O1214     Co1234   1.952       .  S
O1215      C1223   1.266   1_565  A
O1215     Co1235   1.997       .  S
O1216      C1222   1.247   1_655  A
O1216     Co2761   1.986       .  S
O1217      C2751   1.262   1_455  A
O1217     Co1232   1.975       .  S
O1218      C1221   1.243       .  A
O1219      C1220   1.274       .  A
O1219     Co1234   2.007       .  S
C1220      C1437   1.463       .  S
C1221      C1394   1.459       .  S
C1222      C1250   1.465       .  S
C1223      O2745   1.262       .  A
O1224      C1237   1.265       .  A
O1224     Co2760   2.008   1_565  S
O1225     Co1233   2.057       .  S
O1226      C1239   1.260       .  A
O1227      C1240   1.268       .  A
O1227     Co1235   1.901       .  S
O1228      C1240   1.292       .  A
O1229      C1239   1.265       .  A
O1229     Co1232   1.996   1_565  S
O1230      C1237   1.257       .  A
O1230     Co1235   1.962       .  S
O1231      C2002   1.272   1_455  A
O1231     Co1234   1.894       .  S
Co1232     O2752   2.010   1_545  S
Co1232     O2764   2.088       .  S
Co1233     O2744   1.993       .  S
Co1234     O2000   1.930       .  S
Co1235     O1236   1.925   1_565  S
O1236     Co2760   2.085       .  S
O1236     Co1998   1.934       .  S
C1237      C1413   1.449       .  S
C1238      O1995   1.272   1_565  A
C1239      C1293   1.489       .  S
C1240      C1274   1.476       .  S
C1241      C1242   1.404       .  A
C1241      C1246   1.398       .  A
C1241      C1255   1.444       .  S
C1242      C1243   1.401       .  A
C1242      C1247   1.472       .  S
C1243      C1244   1.395       .  A
C1243      H1262   1.086       .  S
C1244      C1245   1.415       .  A
C1244      C1256   1.445       .  S
C1245      C1246   1.410       .  A
C1246      H1261   1.085       .  S
C1247      C1248   1.399       .  A
C1247      C1252   1.412       .  A
C1248      C1249   1.392       .  A
C1248      H1263   1.085       .  S
C1249      C1250   1.410       .  A
C1249      C1253   1.444       .  S
C1250      C1251   1.401       .  A
C1251      C1252   1.399       .  A
C1251      H1264   1.083   1_455  S
C1252      C1254   1.444       .  S
C1253      N2785   1.157       .  T
C1254      N1258   1.157       .  T
C1255      N1260   1.157       .  T
C1256      N1259   1.157       .  T
N1257      C2781   1.157       .  T
C1265      C1266   1.415       .  A
C1266      C1267   1.403       .  A
C1266      C1271   1.489       .  S
C1267      C1268   1.398       .  A
C1267      H1286   1.085       .  S
C1268      C1269   1.413       .  A
C1268      C1280   1.445       .  S
C1270      H1285   1.085       .  S
C1271      C1272   1.403       .  A
C1271      C1276   1.415       .  A
C1272      C1273   1.397       .  A
C1272      H1287   1.085       .  S
C1273      C1274   1.414       .  A
C1273      C1277   1.446       .  S
C1274      C1275   1.402       .  A
C1275      C1276   1.401       .  A
C1275      H1288   1.085       .  S
C1276      C1278   1.444       .  S
C1278      N1282   1.157       .  T
C1279      N1284   1.157   1_554  T
C1280      N1283   1.157       .  T
C1289      C1290   1.405       .  A
C1289      C1294   1.392       .  A
C1289      C1303   1.446       .  S
C1290      C1291   1.403       .  A
C1290      C1295   1.479       .  S
C1291      C1292   1.405       .  A
C1291      H1310   1.084       .  S
C1292      C1293   1.418       .  A
C1292      C1304   1.444       .  S
C1293      C1294   1.409       .  A
C1294      H1309   1.084       .  S
C1295      C1296   1.401       .  A
C1295      C1300   1.410       .  A
C1296      C1297   1.397       .  A
C1296      H1311   1.085       .  S
C1297      C1298   1.413       .  A
C1297      C1301   1.445       .  S
C1298      C1299   1.402       .  A
C1299      C1300   1.400       .  A
C1301      N1305   1.157       .  T
C1302      N1306   1.157   1_554  T
C1303      N1308   1.157       .  T
C1304      N2835   1.157   1_455  T
N1307      C2832   1.157       .  T
C1313      C1314   1.411       .  A
C1313      C1318   1.399       .  A
C1313      C1327   1.444       .  S
C1314      C1315   1.404       .  A
C1314      C1319   1.488       .  S
C1315      C1316   1.401       .  A
C1315      H1334   1.085       .  S
C1316      C1317   1.414       .  A
C1316      C1328   1.443       .  S
C1317      C1318   1.407       .  A
C1318      H1333   1.085       .  S
C1319      C1320   1.405       .  A
C1319      C1324   1.411       .  A
C1320      C1321   1.401       .  A
C1320      H1335   1.085       .  S
C1321      C1322   1.412       .  A
C1321      C1325   1.443       .  S
C1322      C1323   1.406       .  A
C1323      C1324   1.399       .  A
C1323      H1336   1.085       .  S
C1324      C1326   1.444       .  S
C1325      N1329   1.157       .  T
C1326      N1330   1.157       .  T
C1327      N1332   1.157       .  T
C1328      N2859   1.157       .  T
N1331      C2856   1.157       .  T
C1337      C1338   1.412       .  A
C1337      C1342   1.399       .  A
C1337      C1351   1.445       .  S
C1338      C1339   1.407       .  A
C1338      C1343   1.495       .  S
C1339      C1340   1.406       .  A
C1339      H1358   1.085       .  S
C1340      C1341   1.416       .  A
C1340      C1352   1.445       .  S
C1341      C1342   1.405       .  A
C1342      H1357   1.085       .  S
C1343      C1344   1.405       .  A
C1343      C1348   1.413       .  A
C1344      C1345   1.402       .  A
C1344      H1359   1.085       .  S
C1345      C1346   1.413       .  A
C1345      C1349   1.443       .  S
C1346      C1347   1.407       .  A
C1347      C1348   1.405       .  A
C1347      H1360   1.084       .  S
C1348      C1350   1.444       .  S
C1349      N1353   1.157       .  T
C1350      N1354   1.157       .  T
C1351      N1356   1.157       .  T
C1352      N1355   1.158       .  T
C1361      C1362   1.411       .  A
C1361      C1366   1.408       .  A
C1361      C1375   1.444       .  S
C1362      C1363   1.402       .  A
C1362      C1367   1.488       .  S
C1363      C1364   1.398       .  A
C1363      H1382   1.085       .  S
C1364      C1365   1.412       .  A
C1364      C1376   1.445       .  S
C1365      C1366   1.409       .  A
C1366      H1381   1.085       .  S
C1367      C1368   1.402       .  A
C1367      C1372   1.408       .  A
C1368      C1369   1.405       .  A
C1368      H1383   1.085       .  S
C1369      C1370   1.421       .  A
C1369      C1373   1.444   1_455  S
C1370      C1371   1.411       .  A
C1371      C1372   1.401       .  A
C1371      H1384   1.084       .  S
C1372      C1374   1.445       .  S
C1373      N2905   1.157       .  T
C1374      N1378   1.157       .  T
C1375      N1380   1.157       .  T
C1376      N1379   1.157       .  T
N1377      C2901   1.157       .  T
C1385      C1386   1.405       .  A
C1385      C1390   1.393       .  A
C1385      C1399   1.445       .  S
C1386      C1387   1.401       .  A
C1386      C1391   1.465       .  S
C1387      C1388   1.394       .  A
C1387      H1406   1.085       .  S
C1388      C1389   1.411       .  A
C1388      C1400   1.446       .  S
C1389      C1390   1.404       .  A
C1390      H1405   1.085       .  S
C1391      C1392   1.401       .  A
C1391      C1396   1.406       .  A
C1392      C1393   1.397       .  A
C1392      H1407   1.085       .  S
C1393      C1394   1.410       .  A
C1393      C1397   1.444       .  S
C1394      C1395   1.398       .  A
C1395      C1396   1.389       .  A
C1395      H1408   1.082       .  S
C1396      C1398   1.445       .  S
C1397      N1401   1.157       .  T
C1398      N1402   1.157       .  T
C1399      N1404   1.157       .  T
C1400      N1403   1.158       .  T
C1409      C1410   1.408       .  A
C1409      C1414   1.389       .  A
C1409      C1423   1.445       .  S
C1410      C1411   1.400       .  A
C1410      C1415   1.464       .  S
C1411      C1412   1.392       .  A
C1411      H1430   1.085       .  S
C1412      C1413   1.407       .  A
C1412      C1424   1.444       .  S
C1413      C1414   1.396       .  A
C1414      H1429   1.079       .  S
C1415      C1416   1.397       .  A
C1415      C1420   1.409       .  A
C1416      C1417   1.394       .  A
C1416      H1431   1.085       .  S
C1417      C1418   1.416       .  A
C1417      C1421   1.445       .  S
C1418      C1419   1.403       .  A
C1419      C1420   1.390       .  A
C1419      H1432   1.085       .  S
C1420      C1422   1.445       .  S
C1421      N1425   1.157       .  T
C1422      N1426   1.157       .  T
C1423      N1428   1.157       .  T
C1424      N1427   1.157       .  T
C1433      C1434   1.408       .  A
C1433      C1438   1.397       .  A
C1433      C1447   1.443       .  S
C1434      C1435   1.399       .  A
C1434      C1439   1.470       .  S
C1435      C1436   1.390       .  A
C1435      H1454   1.085       .  S
C1436      C1437   1.412       .  A
C1436      C1448   1.446       .  S
C1437      C1438   1.402       .  A
C1438      H1453   1.083       .  S
C1439      C1440   1.401       .  A
C1439      C1444   1.408       .  A
C1440      C1441   1.396       .  A
C1440      H1455   1.085       .  S
C1441      C1442   1.413       .  A
C1441      C1445   1.444       .  S
C1442      C1443   1.404       .  A
C1443      C1444   1.393       .  A
C1443      H1456   1.085       .  S
C1444      C1446   1.445       .  S
C1445      N1449   1.157       .  T
C1446      N1450   1.157       .  T
C1447      N1452   1.157       .  T
C1457      C1458   1.411       .  A
C1457      C1462   1.395       .  A
C1457      C1471   1.446       .  S
C1458      C1459   1.403       .  A
C1458      C1463   1.484       .  S
C1460      C1472   1.443       .  S
C1461      C1462   1.405       .  A
C1462      H1477   1.085       .  S
C1463      C1464   1.398       .  A
C1463      C1468   1.410       .  A
C1464      C1465   1.393       .  A
C1464      H1479   1.086       .  S
C1465      C1466   1.418       .  A
C1465      C1469   1.445       .  S
C1466      C1467   1.409       .  A
C1467      C1468   1.407       .  A
C1467      H1480   1.085       .  S
C1469      N1473   1.157       .  T
C1470      N1474   1.156       .  T
C1471      N1476   1.157       .  T
C1472      N1475   1.157       .  T
C1481      C1482   1.407       .  A
C1481      C1486   1.399       .  A
C1481      C1495   1.444       .  S
C1482      C1483   1.403       .  A
C1482      C1487   1.485       .  S
C1483      C1484   1.401       .  A
C1484      C1485   1.418       .  A
C1484      C1496   1.444       .  S
C1485      C1486   1.409       .  A
C1486      H1501   1.083       .  S
C1487      C1488   1.403       .  A
C1487      C1492   1.410       .  A
C1488      C1489   1.402       .  A
C1488      H1503   1.085       .  S
C1489      C1490   1.411       .  A
C1489      C1493   1.443       .  S
C1490      C1491   1.403       .  A
C1491      C1492   1.401       .  A
C1492      C1494   1.443   1_556  S
C1493      N1497   1.157       .  T
C1494      N1498   1.157       .  T
C1495      N1500   1.157       .  T
C1505      C1506   1.411       .  A
C1505      C1510   1.398       .  A
C1505      C1519   1.444       .  S
C1506      C1507   1.406   1_556  A
C1506      C1511   1.485       .  S
C1507      C1508   1.404       .  A
C1507      H1526   1.085       .  S
C1508      C1509   1.409   1_554  A
C1508      C1520   1.443       .  S
C1509      C1510   1.400       .  A
C1510      H1525   1.085       .  S
C1511      C1512   1.404       .  A
C1511      C1516   1.406       .  A
C1512      C1513   1.405       .  A
C1512      H1527   1.085       .  S
C1513      C1514   1.418       .  A
C1513      C1517   1.444       .  S
C1514      C1515   1.409       .  A
C1515      C1516   1.397       .  A
C1515      H1528   1.084       .  S
C1517      N1521   1.158       .  T
C1518      N1522   1.157       .  T
C1519      N1524   1.157       .  T
C1529      C1530   1.405       .  A
C1529      C1534   1.405       .  A
C1529      C2225   1.489       .  S
C1530      C1531   1.400       .  A
C1530      H1535   1.084       .  S
C1531      C1532   1.404       .  A
C1531      C2273   1.477       .  S
C1532      C1533   1.404       .  A
C1532      H1536   1.084       .  S
C1533      C1534   1.403       .  A
C1533      C2254   1.479       .  S
C1534      H1537   1.084       .  S
C1538      C1539   1.396       .  A
C1538      C1543   1.396       .  A
C1538      C1771   1.474       .  S
C1539      C1540   1.402       .  A
C1539      H1544   1.084       .  S
C1540      C1541   1.407       .  A
C1540      C1824   1.486       .  S
C1541      C1542   1.411       .  A
C1541      H1545   1.082       .  S
C1542      C1543   1.401       .  A
C1542      C1800   1.487       .  S
C1543      H1546   1.083       .  S
C1547      C1548   1.404       .  A
C1547      C1552   1.401       .  A
C1547      C1747   1.489       .  S
C1548      C1549   1.409       .  A
C1548      H1553   1.084       .  S
C1549      C1550   1.407       .  A
C1549      C1728   1.493       .  S
C1550      C1551   1.408       .  A
C1550      H1554   1.083       .  S
C1551      C1552   1.405       .  A
C1551      C1704   1.489       .  S
C1552      H1555   1.084       .  S
C1556      C1557   1.396       .  A
C1556      C1561   1.401       .  A
C1556      C1680   1.477       .  S
C1557      C1558   1.400       .  A
C1557      H1562   1.084       .  S
C1558      C1559   1.407       .  A
C1558      C1627   1.482       .  S
C1559      C1560   1.406       .  A
C1559      H1563   1.083       .  S
C1560      C1561   1.407       .  A
C1560      C1651   1.491       .  S
C1561      H1564   1.084       .  S
O1565      C1573   1.266   1_565  A
O1565     Co2349   2.023       .  S
O1566      C1574   1.276       .  A
O1566     Co1586   2.010       .  S
O1567      C1575   1.258       .  A
O1567     Co1587   1.957       .  S
O1568      C1576   1.266       .  A
O1568     Co1588   1.897       .  S
O1569      C1575   1.273       .  A
O1570     Co1585   2.098       .  S
O1571      C1574   1.272       .  A
O1571     Co2352   1.981   1_545  S
O1572      C1573   1.254       .  A
O1572     Co1587   1.964       .  S
C1573      C1896   1.495       .  S
C1574      C1848   1.484       .  S
C1575      C1699   1.484       .  S
C1576      C2002   1.461       .  S
O1577      C1590   1.268   1_455  A
O1578      C2355   1.259   1_565  A
O1578     Co1586   1.950   1_565  S
O1579      C1592   1.280       .  A
O1579     Co2351   2.032       .  S
O1580      C1593   1.264       .  A
O1580     Co1588   2.007       .  S
O1581      C1593   1.258       .  A
O1581     Co2350   1.974       .  S
O1582      C1592   1.269       .  A
O1582     Co1585   1.971       .  S
O1583      C1590   1.293       .  A
O1583     Co1588   2.092       .  S
O1584     Co1587   2.023       .  S
Co1585     O2329   2.029       .  S
Co1586     O2345   1.981   1_545  S
Co1586     O2353   2.036   1_545  S
Co1587     O2343   2.036   1_545  S
Co1588     O2335   1.979       .  S
Co1588     O1589   2.008       .  S
O1589     Co2350   2.030       .  S
C1590      C1867   1.496       .  S
C1591      C1605   1.466       .  S
C1591      O2342   1.261       .  A
C1592      C1752   1.500       .  S
C1593      C1723   1.486       .  S
O1594      C1602   1.264       .  A
O1594     Co2378   1.963       .  S
O1595      C1603   1.253       .  A
O1595     Co1615   1.986   1_545  S
O1596      C1604   1.243       .  A
O1596     Co1616   1.951       .  S
O1597      C1605   1.269       .  A
O1597     Co1617   2.011       .  S
O1598      C1604   1.249       .  A
O1599     Co1614   1.971       .  S
O1600      C1603   1.244       .  A
O1600     Co2381   1.955   1_545  S
O1601      C1602   1.274       .  A
O1601     Co1616   2.014       .  S
C1602      C1819   1.471       .  S
C1603      C1776   1.466       .  S
C1604      C1632   1.467       .  S
O1606      C1619   1.266   1_455  A
O1607      C2384   1.297       .  A
O1607     Co1615   2.069       .  S
O1608      C1621   1.260       .  A
O1608     Co2380   1.982       .  S
O1609      C1622   1.268       .  A
O1609     Co1617   1.894       .  S
O1610      C1622   1.296       .  A
O1610     Co2379   2.069       .  S
O1611      C1621   1.267       .  A
O1611     Co1614   2.008       .  S
O1612      C1619   1.257       .  A
O1612     Co1617   1.970       .  S
O1613     Co1616   1.901       .  S
Co1614     O2358   1.957       .  S
Co1615     O2374   2.064       .  S
Co1615     O2382   2.247   1_665  S
Co1616     O2372   1.979   1_545  S
Co1617     O2364   1.952       .  S
Co1617     O1618   1.929   1_655  S
O1618     Co2379   2.248   1_455  S
C1619      C1795   1.459       .  S
C1620      C1958   1.469   1_454  S
C1620      O2371   1.297   1_455  A
C1621      C1675   1.491       .  S
C1622      C1656   1.481       .  S
C1623      C1624   1.405       .  A
C1623      C1628   1.401       .  A
C1623      C1637   1.444   1_554  S
C1624      C1625   1.400       .  A
C1624      C1629   1.473       .  S
C1625      C1626   1.393       .  A
C1625      H1644   1.086       .  S
C1626      C1627   1.414       .  A
C1626      C1638   1.445       .  S
C1627      C1628   1.410       .  A
C1628      H1643   1.085   1_554  S
C1629      C1630   1.398       .  A
C1629      C1634   1.411       .  A
C1630      C1631   1.391       .  A
C1630      H1645   1.085       .  S
C1631      C1632   1.411       .  A
C1631      C1635   1.444       .  S
C1632      C1633   1.402       .  A
C1633      C1634   1.400       .  A
C1633      H1646   1.082       .  S
C1634      C1636   1.444       .  S
C1636      N1640   1.157       .  T
C1637      N1642   1.157       .  T
C1638      N1641   1.157       .  T
C1647      C1648   1.413       .  A
C1647      C2034   1.404       .  A
C1647      C2043   1.445       .  S
C1648      C1649   1.401       .  A
C1648      C1653   1.489       .  S
C1649      C1650   1.398       .  A
C1649      H1668   1.085       .  S
C1650      C1651   1.417       .  A
C1650      C1662   1.445       .  S
C1651      C2034   1.407       .  A
C1652      C2029   1.402       .  A
C1652      C2033   1.404       .  A
C1652      H1667   1.085       .  S
C1653      C1654   1.403       .  A
C1653      C1658   1.414       .  A
C1654      C1655   1.400       .  A
C1654      H1669   1.085       .  S
C1655      C1656   1.416       .  A
C1655      C1659   1.446       .  S
C1656      C1657   1.405       .  A
C1657      C1658   1.401       .  A
C1657      H1670   1.085       .  S
C1658      C1660   1.445       .  S
C1659      N2427   1.158       .  T
C1660      N1664   1.157       .  T
C1661      C2029   1.445       .  S
C1661      N1666   1.157       .  T
C1662      N1665   1.157       .  T
N1663      C2423   1.158       .  T
C1671      C1672   1.408       .  A
C1671      C1676   1.396       .  A
C1671      C1685   1.445       .  S
C1672      C1673   1.403       .  A
C1672      C1677   1.484       .  S
C1673      C1674   1.404       .  A
C1673      H1692   1.085       .  S
C1674      C1675   1.418       .  A
C1674      C1686   1.444       .  S
C1675      C1676   1.409       .  A
C1676      H1691   1.084       .  S
C1677      C1678   1.403       .  A
C1677      C1682   1.412       .  A
C1678      C1679   1.398       .  A
C1678      H1693   1.085       .  S
C1679      C1680   1.413       .  A
C1679      C1683   1.445       .  S
C1680      C1681   1.401       .  A
C1681      C1682   1.400       .  A
C1681      H2076   1.085       .  S
C1682      C2066   1.443       .  S
C1683      N1687   1.157       .  T
C1684      C2064   1.443       .  S
C1684      N1688   1.157       .  T
C1685      N1690   1.157       .  T
H1694      C2063   1.085       .  S
C1695      C1696   1.411       .  A
C1695      C1700   1.400       .  A
C1695      C1709   1.445       .  S
C1696      C1697   1.402       .  A
C1696      C1701   1.486       .  S
C1697      C1698   1.400       .  A
C1697      H1716   1.085       .  S
C1698      C1699   1.414       .  A
C1698      C1710   1.442       .  S
C1699      C1700   1.407       .  A
C1700      H1715   1.085       .  S
C1701      C1702   1.404       .  A
C1701      C1706   1.409       .  A
C1702      C1703   1.400       .  A
C1702      H1717   1.085       .  S
C1703      C1704   1.413       .  A
C1703      C1707   1.443       .  S
C1704      C1705   1.408       .  A
C1705      C1706   1.400       .  A
C1705      H1718   1.084       .  S
C1706      C1708   1.444       .  S
C1707      N1711   1.157       .  T
C1708      N1712   1.157       .  T
C1709      N1714   1.157       .  T
C1719      C1720   1.410       .  A
C1719      C1724   1.397       .  A
C1719      C1733   1.445       .  S
C1720      C1721   1.406       .  A
C1720      C1725   1.489       .  S
C1721      C1722   1.405       .  A
C1721      H1740   1.085       .  S
C1722      C1723   1.415       .  A
C1722      C1734   1.444       .  S
C1723      C1724   1.406       .  A
C1724      H1739   1.085       .  S
C1725      C1726   1.404       .  A
C1725      C1730   1.410       .  A
C1726      C1727   1.403       .  A
C1726      H1741   1.085       .  S
C1727      C1728   1.415       .  A
C1727      C1731   1.442       .  S
C1728      C1729   1.407       .  A
C1729      C1730   1.400       .  A
C1729      H1742   1.084       .  S
C1730      C1732   1.444       .  S
C1731      N1735   1.157       .  T
C1732      N1736   1.157       .  T
C1733      N1738   1.157       .  T
C1734      N1737   1.157       .  T
C1743      C1744   1.410       .  A
C1743      C1748   1.406       .  A
C1743      C1757   1.444       .  S
C1744      C1745   1.402       .  A
C1744      C1749   1.487       .  S
C1745      C1746   1.400       .  A
C1745      H1764   1.085       .  S
C1746      C1747   1.415       .  A
C1746      C1758   1.445       .  S
C1747      C1748   1.408       .  A
C1748      H1763   1.085       .  S
C1749      C1750   1.400       .  A
C1749      C1754   1.407       .  A
C1750      C1751   1.403       .  A
C1750      H1765   1.085       .  S
C1751      C1752   1.421       .  A
C1751      C1755   1.444       .  S
C1752      C1753   1.412       .  A
C1753      C1754   1.404       .  A
C1753      H1766   1.084       .  S
C1754      C1756   1.444       .  S
C1756      N1760   1.157       .  T
C1757      N1762   1.157       .  T
C1758      N1761   1.157       .  T
C1767      C1768   1.406       .  A
C1767      C1772   1.399       .  A
C1767      C1781   1.444       .  S
C1768      C1769   1.398       .  A
C1768      C1773   1.469       .  S
C1769      C1770   1.393       .  A
C1769      H1788   1.085       .  S
C1770      C1771   1.413       .  A
C1770      C1782   1.444       .  S
C1771      C1772   1.406       .  A
C1772      H1787   1.085       .  S
C1773      C1774   1.400       .  A
C1773      C1778   1.408       .  A
C1774      C1775   1.399       .  A
C1774      H1789   1.085       .  S
C1775      C1776   1.413       .  A
C1775      C1779   1.444       .  S
C1776      C1777   1.399       .  A
C1777      C1778   1.393       .  A
C1777      H1790   1.083       .  S
C1778      C1780   1.445       .  S
C1779      N1783   1.157   1_545  T
C1780      N1784   1.157       .  T
C1781      N1786   1.157       .  T
C1782      N1785   1.157       .  T
C1791      C1792   1.409       .  A
C1791      C1796   1.395       .  A
C1791      C1805   1.444       .  S
C1792      C1793   1.400       .  A
C1792      C1797   1.472       .  S
C1793      C1794   1.394       .  A
C1793      H1812   1.085       .  S
C1794      C1795   1.408       .  A
C1794      C1806   1.443       .  S
C1795      C1796   1.399       .  A
C1796      H1811   1.080       .  S
C1797      C1798   1.397       .  A
C1797      C1802   1.409       .  A
C1798      C1799   1.397       .  A
C1798      H1813   1.085       .  S
C1799      C1800   1.420       .  A
C1799      C1803   1.445       .  S
C1800      C1801   1.405       .  A
C1801      C1802   1.396       .  A
C1801      H1814   1.084       .  S
C1802      C1804   1.445       .  S
C1803      N1807   1.157       .  T
C1804      N1808   1.157       .  T
C1805      N1810   1.157       .  T
C1806      N1809   1.157       .  T
C1815      C1816   1.409       .  A
C1815      C1820   1.399       .  A
C1815      C1829   1.442       .  S
C1816      C1817   1.399       .  A
C1816      C1821   1.476       .  S
C1817      C1818   1.396       .  A
C1817      H1836   1.085       .  S
C1818      C1819   1.415       .  A
C1818      C1830   1.446       .  S
C1819      C1820   1.402       .  A
C1820      H1835   1.084       .  S
C1821      C1822   1.403       .  A
C1821      C1826   1.406       .  A
C1822      C1823   1.402       .  A
C1822      H1837   1.085       .  S
C1823      C1824   1.414       .  A
C1823      C1827   1.443       .  S
C1824      C1825   1.406       .  A
C1825      C1826   1.393       .  A
C1825      H1838   1.082       .  S
C1826      C1828   1.446       .  S
C1827      N1831   1.157       .  T
C1828      N1832   1.157       .  T
C1829      N1834   1.156       .  T
C1830      N2597   1.157       .  T
N1833      C2594   1.157       .  T
C1839      C1840   1.410       .  A
C1839      C1844   1.398       .  A
C1839      C1853   1.445       .  S
C1840      C1841   1.402       .  A
C1840      C1845   1.484       .  S
C1841      C2224   1.405       .  A
C1841      H2242   1.085       .  S
C1842      C2223   1.403       .  A
C1842      C2225   1.416       .  A
C1842      C1854   1.443   1_556  S
C1843      C2224   1.417       .  A
C1843      C1844   1.406       .  A
C1843      C1911   1.493       .  S
C1844      H1859   1.084       .  S
C1845      C1846   1.398       .  A
C1845      C1850   1.409       .  A
C1846      C1847   1.394       .  A
C1846      H1861   1.086       .  S
C1847      C1848   1.417       .  A
C1847      C1851   1.444       .  S
C1848      C1849   1.409       .  A
C1849      C1850   1.406       .  A
C1849      H1862   1.085       .  S
C1850      C2234   1.441       .  S
C1851      N1855   1.157       .  T
C1852      C2232   1.443   1_554  S
C1852      N1856   1.157       .  T
C1853      N1858   1.157       .  T
C1854      N1857   1.157       .  T
H1860      C2223   1.085   1_554  S
C1863      C1864   1.409       .  A
C1863      C1868   1.402       .  A
C1863      C1877   1.444       .  S
C1864      C1865   1.403       .  A
C1864      C1869   1.490       .  S
C1865      C1866   1.404       .  A
C1865      H2266   1.085       .  S
C1866      C1867   1.418       .  A
C1866      C1878   1.444       .  S
C1867      C1868   1.411       .  A
C1868      H1883   1.084       .  S
C1869      C1870   1.403       .  A
C1869      C1874   1.412       .  A
C1870      C1871   1.402       .  A
C1870      H1885   1.085       .  S
C1871      C1872   1.414       .  A
C1871      C1875   1.444       .  S
C1872      C1873   1.406       .  A
C1872      C1915   1.490       .  S
C1873      C1874   1.404       .  A
C1873      H2268   1.085       .  S
C1874      C1876   1.443       .  S
C1875      N1879   1.157       .  T
C1876      N1880   1.157       .  T
C1877      N1882   1.157       .  T
C1878      N2263   1.157   1_655  T
N1881      C2260   1.157       .  T
H1884      C2247   1.085       .  S
H1886      C2255   1.085   1_554  S
C1887      C1888   1.414       .  A
C1887      C1892   1.399       .  A
C1887      C1901   1.445       .  S
C1888      C1889   1.408       .  A
C1888      C1893   1.495       .  S
C1889      C1890   1.404       .  A
C1889      H1908   1.083       .  S
C1890      C1891   1.410       .  A
C1890      C1902   1.444       .  S
C1891      C1892   1.403       .  A
C1891      C1913   1.483       .  S
C1892      H1907   1.085       .  S
C1893      C1894   1.408       .  A
C1893      C1898   1.410       .  A
C1894      C1895   1.405       .  A
C1894      H1909   1.085       .  S
C1895      C1896   1.414       .  A
C1895      C1899   1.442   1_545  S
C1896      C1897   1.411       .  A
C1897      C1898   1.399       .  A
C1897      H1910   1.084       .  S
C1898      C2282   1.445       .  S
C1899      N1903   1.157       .  T
C1900      C2280   1.444       .  S
C1900      N1904   1.157       .  T
C1901      N1906   1.157       .  T
C1902      N2287   1.157       .  T
N1905      C2284   1.157       .  T
C1911      C1912   1.404       .  A
C1911      C1916   1.407       .  A
C1912      C1913   1.403       .  A
C1912      H1917   1.084       .  S
C1913      C1914   1.405       .  A
C1914      C1915   1.405       .  A
C1914      H1918   1.084       .  S
C1915      C1916   1.407       .  A
C1916      H1919   1.083       .  S
C1920      C1921   1.398       .  A
C1920      C1925   1.396       .  A
C1920      C2153   1.469       .  S
C1921      C1922   1.401       .  A
C1921      H1926   1.084       .  S
C1922      C1923   1.399       .  A
C1922      C2206   1.475       .  S
C1923      C1924   1.401       .  A
C1923      H1927   1.084       .  S
C1924      C1925   1.396       .  A
C1924      C2182   1.471       .  S
C1925      H1928   1.084       .  S
C1929      C1930   1.407       .  A
C1929      C1934   1.400       .  A
C1929      C2129   1.487       .  S
C1930      C1931   1.407       .  A
C1930      H1935   1.084       .  S
C1931      C1932   1.408       .  A
C1931      C2110   1.492       .  S
C1932      C1933   1.407       .  A
C1932      H1936   1.084       .  S
C1933      C1934   1.403       .  A
C1933      C2086   1.486       .  S
C1934      H1937   1.084       .  S
C1938      C1939   1.395       .  A
C1938      C1943   1.399       .  A
C1938      C2062   1.474       .  S
C1939      C1940   1.400       .  A
C1939      H1944   1.084       .  S
C1940      C1941   1.407       .  A
C1940      C2009   1.485       .  S
C1941      C1942   1.405       .  A
C1941      H1945   1.083       .  S
C1942      C1943   1.405       .  A
C1942      C2033   1.484       .  S
C1943      H1946   1.084       .  S
O1947      C1955   1.265   1_565  A
O1947     Co2731   2.021       .  S
O1948      C1956   1.274       .  A
O1948     Co1968   2.000       .  S
O1949      C1957   1.258       .  A
O1949     Co1969   1.953       .  S
O1950      C1958   1.264       .  A
O1950     Co1970   1.891       .  S
O1951      C1957   1.275       .  A
O1952     Co1967   2.104       .  S
O1953      C1956   1.272       .  A
O1953     Co2734   1.982   1_545  S
O1954      C1955   1.256       .  A
O1954     Co1969   1.970       .  S
C1955      C2278   1.493       .  S
C1956      C2230   1.482       .  S
C1957      C2081   1.484       .  S
O1959      C1972   1.267   1_455  A
O1960      C2737   1.256   1_665  A
O1960     Co1968   1.939   1_565  S
O1961      C1974   1.279       .  A
O1961     Co2733   2.027       .  S
O1962      C1975   1.263       .  A
O1962     Co1970   2.005       .  S
O1963      C1975   1.260       .  A
O1963     Co2732   1.981       .  S
O1964      C1974   1.269       .  A
O1964     Co1967   1.973       .  S
O1965      C1972   1.296       .  A
O1965     Co1970   2.097       .  S
O1966     Co1969   2.029       .  S
Co1967     O2711   2.029       .  S
Co1968     O2727   1.982   1_545  S
Co1968     O2735   2.031       .  S
Co1969     O2725   2.030       .  S
Co1970     O2717   1.985       .  S
Co1970     O1971   2.000   1_655  S
O1971     Co2732   2.028   1_455  S
C1972      C2249   1.486       .  S
C1973      C1987   1.461       .  S
C1973      O2724   1.259   1_455  A
C1974      C2134   1.498       .  S
C1975      C2105   1.489       .  S
O1976      C1984   1.263       .  A
O1976     Co2760   1.956       .  S
O1977      C1985   1.251       .  A
O1977     Co1997   1.975   1_545  S
O1978      C1986   1.242       .  A
O1978     Co1998   1.952       .  S
O1979      C1987   1.266   1_655  A
O1979     Co1999   1.995       .  S
O1980      C1986   1.248       .  A
O1981     Co1996   1.975       .  S
O1982      C1985   1.244       .  A
O1982     Co2763   1.957   1_545  S
O1983      C1984   1.274       .  A
O1983     Co1998   2.009       .  S
C1984      C2201   1.464       .  S
C1985      C2158   1.462       .  S
C1986      C2014   1.467       .  S
O1988      C2001   1.265   1_455  A
O1989      C2766   1.294       .  A
O1989     Co1997   2.059       .  S
O1990      C2003   1.259       .  A
O1990     Co2762   1.985       .  S
O1991      C2004   1.268       .  A
O1991     Co1999   1.901       .  S
O1992      C2004   1.292       .  A
O1992     Co2761   2.057       .  S
O1993      C2003   1.264       .  A
O1993     Co1996   1.994       .  S
O1994      C2001   1.257       .  A
O1994     Co1999   1.962       .  S
O1995     Co1998   1.898       .  S
Co1996     O2740   1.966       .  S
Co1997     O2756   2.062       .  S
Co1997     O2764   2.248   1_665  S
Co1998     O2754   1.986   1_545  S
Co1999     O2746   1.951       .  S
Co1999     O2000   1.922   1_655  S
O2000     Co2761   2.247   1_455  S
C2001      C2177   1.448       .  S
C2002      O2753   1.294       .  A
C2003      C2057   1.486       .  S
C2004      C2038   1.476       .  S
C2005      C2006   1.405       .  A
C2005      C2010   1.399       .  A
C2005      C2019   1.444       .  S
C2006      C2007   1.401       .  A
C2006      C2011   1.473       .  S
C2007      C2008   1.394       .  A
C2007      H2026   1.086       .  S
C2008      C2009   1.415       .  A
C2008      C2020   1.445       .  S
C2009      C2010   1.410       .  A
C2010      H2025   1.085       .  S
C2011      C2012   1.399       .  A
C2011      C2016   1.411       .  A
C2012      C2013   1.392       .  A
C2012      H2027   1.085       .  S
C2013      C2014   1.410       .  A
C2013      C2017   1.443       .  S
C2014      C2015   1.401       .  A
C2015      C2016   1.399       .  A
C2015      H2028   1.081       .  S
C2016      C2018   1.444       .  S
C2018      N2022   1.157       .  T
C2019      N2024   1.157       .  T
C2020      N2023   1.157       .  T
C2029      C2030   1.414       .  A
C2030      C2031   1.402       .  A
C2030      C2035   1.487       .  S
C2031      C2032   1.398       .  A
C2031      H2050   1.085       .  S
C2032      C2033   1.414       .  A
C2032      C2044   1.445       .  S
C2034      H2049   1.084       .  S
C2035      C2036   1.402       .  A
C2035      C2040   1.414       .  A
C2036      C2037   1.397       .  A
C2036      H2051   1.085       .  S
C2037      C2038   1.414       .  A
C2037      C2041   1.446       .  S
C2038      C2039   1.403       .  A
C2039      C2040   1.401       .  A
C2039      H2052   1.085       .  S
C2040      C2042   1.444       .  S
C2041      N2809   1.157       .  T
C2042      N2046   1.157       .  T
C2043      N2048   1.157   1_554  T
C2044      N2047   1.157       .  T
N2045      C2805   1.158       .  T
C2053      C2054   1.405       .  A
C2053      C2058   1.391       .  A
C2053      C2067   1.446       .  S
C2054      C2055   1.403       .  A
C2054      C2059   1.477       .  S
C2055      C2056   1.404       .  A
C2055      H2074   1.084       .  S
C2056      C2057   1.417       .  A
C2056      C2068   1.444       .  S
C2057      C2058   1.409       .  A
C2058      H2073   1.085       .  S
C2059      C2060   1.401       .  A
C2059      C2064   1.410       .  A
C2060      C2061   1.396       .  A
C2060      H2075   1.085       .  S
C2061      C2062   1.413       .  A
C2061      C2065   1.445       .  S
C2062      C2063   1.402       .  A
C2063      C2064   1.400       .  A
C2065      N2069   1.157       .  T
C2066      N2070   1.157   1_554  T
C2067      N2072   1.157       .  T
C2077      C2078   1.412       .  A
C2077      C2082   1.399       .  A
C2077      C2091   1.444       .  S
C2078      C2079   1.404       .  A
C2078      C2083   1.488       .  S
C2079      C2080   1.401       .  A
C2079      H2098   1.085       .  S
C2080      C2081   1.414       .  A
C2080      C2092   1.442       .  S
C2081      C2082   1.407       .  A
C2082      H2097   1.085       .  S
C2083      C2084   1.405       .  A
C2083      C2088   1.410       .  A
C2084      C2085   1.402       .  A
C2084      H2099   1.085       .  S
C2085      C2086   1.411       .  A
C2085      C2089   1.443       .  S
C2086      C2087   1.406       .  A
C2087      C2088   1.399       .  A
C2087      H2100   1.085       .  S
C2088      C2090   1.444       .  S
C2089      N2093   1.157       .  T
C2090      N2094   1.157       .  T
C2091      N2096   1.157       .  T
C2101      C2102   1.413       .  A
C2101      C2106   1.401       .  A
C2101      C2115   1.445       .  S
C2102      C2103   1.406       .  A
C2102      C2107   1.496       .  S
C2103      C2104   1.406       .  A
C2103      H2122   1.085       .  S
C2104      C2105   1.416       .  A
C2104      C2116   1.444       .  S
C2105      C2106   1.406       .  A
C2106      H2121   1.085       .  S
C2107      C2108   1.405       .  A
C2107      C2112   1.414       .  A
C2108      C2109   1.402       .  A
C2108      H2123   1.085       .  S
C2109      C2110   1.413       .  A
C2109      C2113   1.443       .  S
C2110      C2111   1.407       .  A
C2111      C2112   1.404       .  A
C2111      H2124   1.084       .  S
C2112      C2114   1.444       .  S
C2113      N2117   1.157       .  T
C2114      N2118   1.157       .  T
C2115      N2120   1.157       .  T
C2116      N2119   1.157       .  T
C2125      C2126   1.411       .  A
C2125      C2130   1.407       .  A
C2125      C2139   1.444       .  S
C2126      C2127   1.402       .  A
C2126      C2131   1.487       .  S
C2127      C2128   1.397       .  A
C2127      H2146   1.085       .  S
C2128      C2129   1.412       .  A
C2128      C2140   1.445       .  S
C2129      C2130   1.409       .  A
C2130      H2145   1.085       .  S
C2131      C2132   1.402       .  A
C2131      C2136   1.408       .  A
C2132      C2133   1.404       .  A
C2132      H2147   1.085       .  S
C2133      C2134   1.421       .  A
C2133      C2137   1.444       .  S
C2134      C2135   1.411       .  A
C2135      C2136   1.400       .  A
C2135      H2148   1.084       .  S
C2136      C2138   1.445       .  S
C2138      N2142   1.157       .  T
C2139      N2144   1.158       .  T
C2140      N2143   1.157       .  T
C2149      C2150   1.405       .  A
C2149      C2154   1.394       .  A
C2149      C2163   1.445       .  S
C2150      C2151   1.402       .  A
C2150      C2155   1.467       .  S
C2151      C2152   1.394       .  A
C2151      H2170   1.085       .  S
C2152      C2153   1.411       .  A
C2152      C2164   1.446       .  S
C2153      C2154   1.404       .  A
C2154      H2169   1.085       .  S
C2155      C2156   1.401       .  A
C2155      C2160   1.407       .  A
C2156      C2157   1.398       .  A
C2156      H2171   1.086       .  S
C2157      C2158   1.411       .  A
C2157      C2161   1.444       .  S
C2158      C2159   1.397       .  A
C2159      C2160   1.388       .  A
C2159      H2172   1.088       .  S
C2160      C2162   1.445       .  S
C2161      N2165   1.157   1_545  T
C2162      N2166   1.157       .  T
C2163      N2168   1.157       .  T
C2164      N2167   1.158       .  T
C2173      C2174   1.408       .  A
C2173      C2178   1.389       .  A
C2173      C2187   1.444       .  S
C2174      C2175   1.400       .  A
C2174      C2179   1.464       .  S
C2175      C2176   1.392       .  A
C2175      H2194   1.085       .  S
C2176      C2177   1.407       .  A
C2176      C2188   1.444       .  S
C2177      C2178   1.396       .  A
C2178      H2193   1.079       .  S
C2179      C2180   1.398       .  A
C2179      C2184   1.408       .  A
C2180      C2181   1.394       .  A
C2180      H2195   1.085       .  S
C2181      C2182   1.414       .  A
C2181      C2185   1.444       .  S
C2182      C2183   1.402       .  A
C2183      C2184   1.390       .  A
C2183      H2196   1.085       .  S
C2184      C2186   1.445       .  S
C2185      N2189   1.157       .  T
C2186      N2190   1.157       .  T
C2187      N2192   1.157       .  T
C2188      N2191   1.157       .  T
C2197      C2198   1.409       .  A
C2197      C2202   1.398       .  A
C2197      C2211   1.444       .  S
C2198      C2199   1.399       .  A
C2198      C2203   1.471       .  S
C2199      C2200   1.390       .  A
C2199      H2218   1.085       .  S
C2200      C2201   1.412       .  A
C2200      C2212   1.446       .  S
C2201      C2202   1.402       .  A
C2202      H2217   1.083       .  S
C2203      C2204   1.402       .  A
C2203      C2208   1.409       .  A
C2204      C2205   1.396       .  A
C2204      H2219   1.085       .  S
C2205      C2206   1.412       .  A
C2205      C2209   1.445       .  S
C2206      C2207   1.404       .  A
C2207      C2208   1.393       .  A
C2207      H2220   1.085       .  S
C2208      C2210   1.445       .  S
C2209      N2213   1.157       .  T
C2210      N2214   1.157       .  T
C2211      N2216   1.157       .  T
C2212      N2979   1.157       .  T
N2215      C2976   1.157       .  T
C2221      C2222   1.411       .  A
C2221      C2226   1.396       .  A
C2221      C2235   1.446       .  S
C2222      C2223   1.401       .  A
C2222      C2227   1.481       .  S
C2224      C2236   1.443       .  S
C2225      C2226   1.405       .  A
C2226      H2241   1.085       .  S
C2227      C2228   1.398       .  A
C2227      C2232   1.410       .  A
C2228      C2229   1.392       .  A
C2228      H2243   1.086       .  S
C2229      C2230   1.418       .  A
C2229      C2233   1.446       .  S
C2230      C2231   1.408       .  A
C2231      C2232   1.405       .  A
C2231      H2244   1.085       .  S
C2233      N2237   1.157       .  T
C2234      N2238   1.156       .  T
C2235      N2240   1.157       .  T
C2236      N2239   1.157       .  T
C2245      C2246   1.407       .  A
C2245      C2250   1.397       .  A
C2245      C2259   1.444       .  S
C2246      C2247   1.402       .  A
C2246      C2251   1.482       .  S
C2247      C2248   1.401       .  A
C2248      C2249   1.417       .  A
C2248      C2260   1.444   1_655  S
C2249      C2250   1.407       .  A
C2250      H2265   1.083       .  S
C2251      C2252   1.401       .  A
C2251      C2256   1.410       .  A
C2252      C2253   1.399       .  A
C2252      H2267   1.085       .  S
C2253      C2254   1.412       .  A
C2253      C2257   1.444       .  S
C2254      C2255   1.404       .  A
C2255      C2256   1.402       .  A
C2256      C2258   1.443   1_556  S
C2257      N2261   1.157       .  T
C2258      N2262   1.157       .  T
C2259      N2264   1.157       .  T
C2269      C2270   1.411       .  A
C2269      C2274   1.398       .  A
C2269      C2283   1.444       .  S
C2270      C2271   1.407   1_556  A
C2270      C2275   1.487       .  S
C2271      C2272   1.405       .  A
C2271      H2290   1.084       .  S
C2272      C2273   1.409   1_554  A
C2272      C2284   1.443       .  S
C2273      C2274   1.400       .  A
C2274      H2289   1.085       .  S
C2275      C2276   1.405       .  A
C2275      C2280   1.407       .  A
C2276      C2277   1.406       .  A
C2276      H2291   1.085       .  S
C2277      C2278   1.417       .  A
C2277      C2281   1.444   1_545  S
C2278      C2279   1.409       .  A
C2279      C2280   1.399       .  A
C2279      H2292   1.084       .  S
C2281      N2285   1.158       .  T
C2282      N2286   1.157       .  T
C2283      N2288   1.157       .  T
C2293      C2294   1.408       .  A
C2293      C2298   1.402       .  A
C2293      C2989   1.489       .  S
C2294      C2295   1.407       .  A
C2294      H2299   1.084       .  S
C2295      C2296   1.406       .  A
C2295      C3037   1.487       .  S
C2296      C2297   1.406       .  A
C2296      H2300   1.084       .  S
C2297      C2298   1.402       .  A
C2297      C3018   1.484       .  S
C2298      H2301   1.084       .  S
C2302      C2303   1.393       .  A
C2302      C2307   1.391       .  A
C2302      C2535   1.460       .  S
C2303      C2304   1.404       .  A
C2303      H2308   1.084       .  S
C2304      C2305   1.402       .  A
C2304      C2588   1.478       .  S
C2305      C2306   1.404       .  A
C2305      H2309   1.082       .  S
C2306      C2307   1.395       .  A
C2306      C2564   1.476       .  S
C2307      H2310   1.084       .  S
C2311      C2312   1.405       .  A
C2311      C2316   1.402       .  A
C2311      C2511   1.490       .  S
C2312      C2313   1.407       .  A
C2312      H2317   1.084       .  S
C2313      C2314   1.409       .  A
C2313      C2492   1.495       .  S
C2314      C2315   1.411       .  A
C2314      H2318   1.083       .  S
C2315      C2316   1.407       .  A
C2315      C2468   1.495       .  S
C2316      H2319   1.084       .  S
C2320      C2321   1.394       .  A
C2320      C2325   1.401       .  A
C2320      C2444   1.470       .  S
C2321      C2322   1.394       .  A
C2321      H2326   1.085       .  S
C2322      C2323   1.401       .  A
C2322      C2391   1.466       .  S
C2323      C2324   1.403       .  A
C2323      H2327   1.084       .  S
C2324      C2325   1.405       .  A
C2324      C2415   1.481       .  S
C2325      H2328   1.084       .  S
O2329      C2337   1.268       .  A
O2330      C2338   1.278       .  A
O2330     Co2350   2.023       .  S
O2331      C2339   1.258       .  A
O2331     Co2351   1.953       .  S
O2332      C2340   1.264       .  A
O2332     Co2352   1.892       .  S
O2333      C2339   1.274       .  A
O2334     Co2349   2.097       .  S
O2335      C2338   1.270       .  A
O2336      C2337   1.257       .  A
O2336     Co2351   1.972       .  S
C2337      C2660   1.502       .  S
C2338      C2612   1.488       .  S
C2339      C2463   1.487       .  S
C2340      C2766   1.460       .  S
O2341      C2354   1.270   1_455  A
O2342     Co2350   1.958       .  S
O2343      C2356   1.282       .  A
O2344      C2357   1.262       .  A
O2344     Co2352   2.006       .  S
O2345      C2357   1.260       .  A
O2346      C2356   1.268       .  A
O2346     Co2349   1.970       .  S
O2347      C2354   1.293       .  A
O2347     Co2352   2.087       .  S
O2348     Co2351   2.031       .  S
Co2352     O2353   2.004       .  S
C2354      C2631   1.494       .  S
C2355      C2369   1.466   1_545  S
C2356      C2516   1.499       .  S
C2357      C2487   1.489       .  S
O2358      C2366   1.261       .  A
O2359      C2367   1.252       .  A
O2359     Co2379   1.978       .  S
O2360      C2368   1.241       .  A
O2360     Co2380   1.941       .  S
O2361      C2369   1.271       .  A
O2361     Co2381   2.011       .  S
O2362      C2368   1.249       .  A
O2363     Co2378   1.971       .  S
O2364      C2367   1.244       .  A
O2365      C2366   1.273       .  A
O2365     Co2380   2.012       .  S
C2366      C2583   1.467       .  S
C2367      C2540   1.458       .  S
C2368      C2396   1.463       .  S
O2370      C2383   1.264   1_455  A
O2371     Co2379   2.066       .  S
O2372      C2385   1.258       .  A
O2373      C2386   1.270       .  A
O2373     Co2381   1.897       .  S
O2374      C2386   1.294       .  A
O2375      C2385   1.263       .  A
O2375     Co2378   1.992   1_565  S
O2376      C2383   1.256       .  A
O2376     Co2381   1.964       .  S
O2377     Co2380   1.894       .  S
Co2381     O2382   1.926   1_665  S
C2383      C2559   1.452       .  S
C2384      C2722   1.464   1_554  S
C2385      C2439   1.481       .  S
C2386      C2420   1.479       .  S
C2387      C2388   1.405       .  A
C2387      C2392   1.397       .  A
C2387      C2401   1.444   1_554  S
C2388      C2389   1.400       .  A
C2388      C2393   1.465       .  S
C2389      C2390   1.394       .  A
C2389      H2408   1.085       .  S
C2390      C2391   1.410       .  A
C2390      C2402   1.446       .  S
C2391      C2392   1.403       .  A
C2392      H2407   1.085   1_554  S
C2393      C2394   1.395       .  A
C2393      C2398   1.408       .  A
C2394      C2395   1.390       .  A
C2394      H2409   1.085       .  S
C2395      C2396   1.412       .  A
C2395      C2399   1.445       .  S
C2396      C2397   1.401       .  A
C2397      C2398   1.399       .  A
C2397      H2410   1.082       .  S
C2398      C2400   1.443       .  S
C2400      N2404   1.157       .  T
C2401      N2406   1.157       .  T
C2402      N2405   1.157       .  T
C2411      C2412   1.412       .  A
C2411      C2798   1.401       .  A
C2411      C2807   1.444       .  S
C2412      C2413   1.403       .  A
C2412      C2417   1.485       .  S
C2413      C2414   1.396       .  A
C2413      H2432   1.085       .  S
C2414      C2415   1.413       .  A
C2414      C2426   1.445       .  S
C2415      C2798   1.405       .  A
C2416      C2793   1.402       .  A
C2416      C2797   1.403       .  A
C2416      H2431   1.085       .  S
C2417      C2418   1.401       .  A
C2417      C2422   1.413       .  A
C2418      C2419   1.399       .  A
C2418      H2433   1.085       .  S
C2419      C2420   1.416       .  A
C2419      C2423   1.446       .  S
C2420      C2421   1.404       .  A
C2421      C2422   1.400       .  A
C2421      H2434   1.085       .  S
C2422      C2424   1.445       .  S
C2424      N2428   1.157       .  T
C2425      C2793   1.444       .  S
C2425      N2430   1.157       .  T
C2426      N2429   1.157       .  T
C2435      C2436   1.407       .  A
C2435      C2440   1.391       .  A
C2435      C2449   1.446       .  S
C2436      C2437   1.402       .  A
C2436      C2441   1.474       .  S
C2437      C2438   1.399       .  A
C2437      H2456   1.085       .  S
C2438      C2439   1.416       .  A
C2438      C2450   1.444       .  S
C2439      C2440   1.408       .  A
C2440      H2455   1.085       .  S
C2441      C2442   1.401       .  A
C2441      C2446   1.411       .  A
C2442      C2443   1.395       .  A
C2442      H2457   1.085       .  S
C2443      C2444   1.413       .  A
C2443      C2447   1.445       .  S
C2444      C2445   1.400       .  A
C2445      C2446   1.396       .  A
C2445      H2840   1.085       .  S
C2446      C2830   1.444       .  S
C2447      N2451   1.157       .  T
C2448      C2828   1.441       .  S
C2448      N2452   1.156       .  T
C2449      N2454   1.157       .  T
H2458      C2827   1.085       .  S
C2459      C2460   1.409       .  A
C2459      C2464   1.398       .  A
C2459      C2473   1.444       .  S
C2460      C2461   1.402       .  A
C2460      C2465   1.485       .  S
C2461      C2462   1.403       .  A
C2461      H2480   1.085       .  S
C2462      C2463   1.415       .  A
C2462      C2474   1.441       .  S
C2463      C2464   1.408       .  A
C2464      H2479   1.085       .  S
C2465      C2466   1.402       .  A
C2465      C2470   1.407       .  A
C2466      C2467   1.402       .  A
C2466      H2481   1.085       .  S
C2467      C2468   1.415       .  A
C2467      C2471   1.441       .  S
C2468      C2469   1.410       .  A
C2469      C2470   1.402       .  A
C2469      H2482   1.084       .  S
C2470      C2472   1.444       .  S
C2471      N2475   1.156       .  T
C2472      N2476   1.157       .  T
C2473      N2478   1.157       .  T
C2483      C2484   1.411       .  A
C2483      C2488   1.400       .  A
C2483      C2497   1.445       .  S
C2484      C2485   1.406       .  A
C2484      C2489   1.492       .  S
C2485      C2486   1.406       .  A
C2485      H2504   1.085       .  S
C2486      C2487   1.416       .  A
C2486      C2498   1.444       .  S
C2487      C2488   1.406       .  A
C2488      H2503   1.084       .  S
C2489      C2490   1.404       .  A
C2489      C2494   1.411       .  A
C2490      C2491   1.403       .  A
C2490      H2505   1.085       .  S
C2491      C2492   1.414       .  A
C2491      C2495   1.441       .  S
C2492      C2493   1.408       .  A
C2493      C2494   1.403       .  A
C2493      H2506   1.084       .  S
C2494      C2496   1.444       .  S
C2495      N2499   1.157       .  T
C2496      N2500   1.157       .  T
C2497      N2502   1.157       .  T
C2498      N2501   1.158       .  T
C2507      C2508   1.410       .  A
C2507      C2512   1.407       .  A
C2507      C2521   1.443       .  S
C2508      C2509   1.403       .  A
C2508      C2513   1.489       .  S
C2509      C2510   1.400       .  A
C2509      H2528   1.085       .  S
C2510      C2511   1.414       .  A
C2510      C2522   1.445       .  S
C2511      C2512   1.408       .  A
C2512      H2527   1.085       .  S
C2513      C2514   1.402       .  A
C2513      C2518   1.407       .  A
C2514      C2515   1.404       .  A
C2514      H2529   1.085       .  S
C2515      C2516   1.421       .  A
C2515      C2519   1.444       .  S
C2516      C2517   1.410       .  A
C2517      C2518   1.402       .  A
C2517      H2530   1.084       .  S
C2518      C2520   1.444       .  S
C2520      N2524   1.157       .  T
C2521      N2526   1.157       .  T
C2522      N2525   1.157       .  T
C2531      C2532   1.407       .  A
C2531      C2536   1.392       .  A
C2531      C2545   1.443       .  S
C2532      C2533   1.403       .  A
C2532      C2537   1.468       .  S
C2533      C2534   1.395       .  A
C2533      H2552   1.085       .  S
C2534      C2535   1.408       .  A
C2534      C2546   1.445       .  S
C2535      C2536   1.400       .  A
C2536      H2551   1.085       .  S
C2537      C2538   1.400       .  A
C2537      C2542   1.409       .  A
C2538      C2539   1.395       .  A
C2538      H2553   1.085       .  S
C2539      C2540   1.410       .  A
C2539      C2543   1.445       .  S
C2540      C2541   1.399       .  A
C2541      C2542   1.393       .  A
C2541      H2554   1.084       .  S
C2542      C2544   1.445       .  S
C2543      N2547   1.157       .  T
C2544      N2548   1.157       .  T
C2545      N2550   1.157       .  T
C2546      N2549   1.158       .  T
C2555      C2556   1.409       .  A
C2555      C2560   1.393       .  A
C2555      C2569   1.444       .  S
C2556      C2557   1.399       .  A
C2556      C2561   1.465       .  S
C2557      C2558   1.390       .  A
C2557      H2576   1.085       .  S
C2558      C2559   1.408       .  A
C2558      C2570   1.443       .  S
C2559      C2560   1.399       .  A
C2560      H2575   1.084       .  S
C2561      C2562   1.398       .  A
C2561      C2566   1.408       .  A
C2562      C2563   1.394       .  A
C2562      H2577   1.085       .  S
C2563      C2564   1.417       .  A
C2563      C2567   1.445       .  S
C2564      C2565   1.403       .  A
C2565      C2566   1.389       .  A
C2565      H2578   1.084       .  S
C2566      C2568   1.445       .  S
C2567      N2571   1.157       .  T
C2568      N2572   1.157       .  T
C2569      N2574   1.157       .  T
C2570      N2573   1.156       .  T
C2579      C2580   1.409       .  A
C2579      C2584   1.398       .  A
C2579      C2593   1.443       .  S
C2580      C2581   1.399       .  A
C2580      C2585   1.473       .  S
C2581      C2582   1.392       .  A
C2581      H2600   1.085       .  S
C2582      C2583   1.414       .  A
C2582      C2594   1.446       .  S
C2583      C2584   1.402       .  A
C2584      H2599   1.082       .  S
C2585      C2586   1.402       .  A
C2585      C2590   1.409       .  A
C2586      C2587   1.398       .  A
C2586      H2601   1.085       .  S
C2587      C2588   1.414       .  A
C2587      C2591   1.444       .  S
C2588      C2589   1.404       .  A
C2589      C2590   1.391       .  A
C2589      H2602   1.085       .  S
C2590      C2592   1.445       .  S
C2591      N2595   1.157       .  T
C2592      N2596   1.157       .  T
C2593      N2598   1.157       .  T
C2603      C2604   1.409       .  A
C2603      C2608   1.397       .  A
C2603      C2617   1.445       .  S
C2604      C2605   1.403       .  A
C2604      C2609   1.486       .  S
C2605      C2988   1.407       .  A
C2605      H3006   1.085       .  S
C2606      C2987   1.406   1_554  A
C2606      C2989   1.416   1_554  A
C2606      C2618   1.444       .  S
C2607      C2988   1.418       .  A
C2607      C2608   1.406       .  A
C2607      C2675   1.495       .  S
C2608      H2623   1.084       .  S
C2609      C2610   1.399       .  A
C2609      C2614   1.409       .  A
C2610      C2611   1.397       .  A
C2610      H2625   1.085       .  S
C2611      C2612   1.415       .  A
C2611      C2615   1.442       .  S
C2612      C2613   1.410       .  A
C2613      C2614   1.408       .  A
C2613      H2626   1.085       .  S
C2614      C2998   1.442       .  S
C2615      N2619   1.156       .  T
C2616      C2996   1.442   1_554  S
C2616      N2620   1.157       .  T
C2617      N2622   1.157       .  T
C2618      N2621   1.157       .  T
H2624      C2987   1.085   1_554  S
C2627      C2628   1.409       .  A
C2627      C2632   1.401       .  A
C2627      C2641   1.444       .  S
C2628      C2629   1.404       .  A
C2628      C2633   1.490       .  S
C2629      C2630   1.403       .  A
C2629      H3030   1.085       .  S
C2630      C2631   1.417       .  A
C2630      C2642   1.444       .  S
C2631      C2632   1.411       .  A
C2632      H2647   1.084       .  S
C2633      C2634   1.401       .  A
C2633      C2638   1.413       .  A
C2634      C2635   1.399       .  A
C2634      H2649   1.085       .  S
C2635      C2636   1.417       .  A
C2635      C2639   1.444       .  S
C2636      C2637   1.406       .  A
C2636      C2679   1.493       .  S
C2637      C2638   1.405       .  A
C2637      H3032   1.085       .  S
C2638      C2640   1.444       .  S
C2639      N2643   1.157       .  T
C2640      N2644   1.157       .  T
C2641      N2646   1.157       .  T
C2642      N3027   1.157   1_655  T
N2645      C3024   1.157       .  T
H2648      C3011   1.085       .  S
H2650      C3019   1.085   1_554  S
C2651      C2652   1.415       .  A
C2651      C2656   1.401       .  A
C2651      C2665   1.444       .  S
C2652      C2653   1.410       .  A
C2652      C2657   1.503       .  S
C2653      C2654   1.407       .  A
C2653      H2672   1.084       .  S
C2654      C2655   1.411       .  A
C2654      C2666   1.444       .  S
C2655      C2656   1.403       .  A
C2655      C2677   1.488       .  S
C2656      H2671   1.085       .  S
C2657      C2658   1.408       .  A
C2657      C2662   1.412       .  A
C2658      C2659   1.409       .  A
C2658      H2673   1.084       .  S
C2659      C2660   1.417       .  A
C2659      C2663   1.443       .  S
C2660      C2661   1.411       .  A
C2661      C2662   1.402       .  A
C2661      H2674   1.084       .  S
C2662      C3046   1.445       .  S
C2663      N2667   1.157       .  T
C2664      C3044   1.444       .  S
C2664      N2668   1.157       .  T
C2665      N2670   1.157       .  T
C2666      N3051   1.157       .  T
N2669      C3048   1.157       .  T
C2675      C2676   1.407       .  A
C2675      C2680   1.405       .  A
C2676      C2677   1.405       .  A
C2676      H2681   1.084       .  S
C2677      C2678   1.407       .  A
C2678      C2679   1.408       .  A
C2678      H2682   1.084       .  S
C2679      C2680   1.406       .  A
C2680      H2683   1.083       .  S
C2684      C2685   1.400       .  A
C2684      C2689   1.397       .  A
C2684      C2917   1.473       .  S
C2685      C2686   1.403       .  A
C2685      H2690   1.084       .  S
C2686      C2687   1.401       .  A
C2686      C2970   1.478       .  S
C2687      C2688   1.401       .  A
C2687      H2691   1.083       .  S
C2688      C2689   1.395       .  A
C2688      C2946   1.472       .  S
C2689      H2692   1.084       .  S
C2693      C2694   1.407       .  A
C2693      C2698   1.404       .  A
C2693      C2893   1.491       .  S
C2694      C2695   1.407       .  A
C2694      H2699   1.084       .  S
C2695      C2696   1.407       .  A
C2695      C2874   1.493       .  S
C2696      C2697   1.407       .  A
C2696      H2700   1.084       .  S
C2697      C2698   1.405       .  A
C2697      C2850   1.488       .  S
C2698      H2701   1.084       .  S
C2702      C2703   1.396       .  A
C2702      C2707   1.401       .  A
C2702      C2826   1.475       .  S
C2703      C2704   1.399       .  A
C2703      H2708   1.084       .  S
C2704      C2705   1.405       .  A
C2704      C2773   1.478       .  S
C2705      C2706   1.404       .  A
C2705      H2709   1.084       .  S
C2706      C2707   1.404       .  A
C2706      C2797   1.483       .  S
C2707      H2710   1.084       .  S
O2711      C2719   1.268       .  A
O2712      C2720   1.276       .  A
O2712     Co2732   2.008       .  S
O2713      C2721   1.257       .  A
O2713     Co2733   1.954       .  S
O2714      C2722   1.264       .  A
O2714     Co2734   1.893       .  S
O2715      C2721   1.275       .  A
O2716     Co2731   2.115       .  S
O2717      C2720   1.273       .  A
O2718      C2719   1.257       .  A
O2718     Co2733   1.972       .  S
C2719      C3042   1.501       .  S
C2720      C2994   1.486       .  S
C2721      C2845   1.490       .  S
O2723      C2736   1.268   1_455  A
O2724     Co2732   1.946       .  S
O2725      C2738   1.280   1_545  A
O2726      C2739   1.262       .  A
O2726     Co2734   2.006       .  S
O2727      C2739   1.260       .  A
O2728      C2738   1.268       .  A
O2728     Co2731   1.975       .  S
O2729      C2736   1.295       .  A
O2729     Co2734   2.094       .  S
O2730     Co2733   2.037       .  S
Co2734     O2735   2.005   1_565  S
C2736      C3013   1.493       .  S
C2737      C2751   1.464   1_455  S
C2738      C2898   1.499       .  S
C2739      C2869   1.490       .  S
O2740      C2748   1.265       .  A
O2741      C2749   1.253       .  A
O2741     Co2761   1.981       .  S
O2742      C2750   1.242       .  A
O2742     Co2762   1.946       .  S
O2743      C2751   1.270   1_565  A
O2743     Co2763   2.004       .  S
O2744      C2750   1.249       .  A
O2745     Co2760   1.979       .  S
O2746      C2749   1.243       .  A
O2747      C2748   1.272       .  A
O2747     Co2762   2.008       .  S
C2748      C2965   1.465       .  S
C2749      C2922   1.465       .  S
C2750      C2778   1.467       .  S
O2752      C2765   1.264   1_455  A
O2753     Co2761   2.062       .  S
O2754      C2767   1.260       .  A
O2755      C2768   1.271       .  A
O2755     Co2763   1.903       .  S
O2756      C2768   1.294       .  A
O2757      C2767   1.265       .  A
O2757     Co2760   2.004   1_565  S
O2758      C2765   1.257       .  A
O2758     Co2763   1.969       .  S
O2759     Co2762   1.900       .  S
Co2763     O2764   1.927   1_665  S
C2765      C2941   1.454       .  S
C2767      C2821   1.491       .  S
C2768      C2802   1.481       .  S
C2769      C2770   1.405       .  A
C2769      C2774   1.399       .  A
C2769      C2783   1.444       .  S
C2770      C2771   1.400       .  A
C2770      C2775   1.470       .  S
C2771      C2772   1.394       .  A
C2771      H2790   1.085       .  S
C2772      C2773   1.414       .  A
C2772      C2784   1.445       .  S
C2773      C2774   1.408       .  A
C2774      H2789   1.085       .  S
C2775      C2776   1.397       .  A
C2775      C2780   1.410       .  A
C2776      C2777   1.391       .  A
C2776      H2791   1.085       .  S
C2777      C2778   1.411       .  A
C2777      C2781   1.444       .  S
C2778      C2779   1.401       .  A
C2779      C2780   1.399       .  A
C2779      H2792   1.081       .  S
C2780      C2782   1.444       .  S
C2782      N2786   1.157       .  T
C2783      N2788   1.157       .  T
C2784      N2787   1.157       .  T
C2793      C2794   1.415       .  A
C2794      C2795   1.404       .  A
C2794      C2799   1.492       .  S
C2795      C2796   1.398       .  A
C2795      H2814   1.085       .  S
C2796      C2797   1.413       .  A
C2796      C2808   1.445       .  S
C2798      H2813   1.085       .  S
C2799      C2800   1.403       .  A
C2799      C2804   1.415       .  A
C2800      C2801   1.399       .  A
C2800      H2815   1.085       .  S
C2801      C2802   1.416       .  A
C2801      C2805   1.446       .  S
C2802      C2803   1.403       .  A
C2803      C2804   1.402       .  A
C2803      H2816   1.085       .  S
C2804      C2806   1.445       .  S
C2806      N2810   1.157       .  T
C2807      N2812   1.157   1_554  T
C2808      N2811   1.157       .  T
C2817      C2818   1.406       .  A
C2817      C2822   1.396       .  A
C2817      C2831   1.446       .  S
C2818      C2819   1.401       .  A
C2818      C2823   1.479       .  S
C2819      C2820   1.402       .  A
C2819      H2838   1.084       .  S
C2820      C2821   1.419       .  A
C2820      C2832   1.444       .  S
C2821      C2822   1.410       .  A
C2822      H2837   1.084       .  S
C2823      C2824   1.402       .  A
C2823      C2828   1.409       .  A
C2824      C2825   1.399       .  A
C2824      H2839   1.085       .  S
C2825      C2826   1.414       .  A
C2825      C2829   1.445       .  S
C2826      C2827   1.400       .  A
C2827      C2828   1.397       .  A
C2829      N2833   1.157       .  T
C2830      N2834   1.157       .  T
C2831      N2836   1.157       .  T
C2841      C2842   1.412       .  A
C2841      C2846   1.400       .  A
C2841      C2855   1.445       .  S
C2842      C2843   1.405       .  A
C2842      C2847   1.493       .  S
C2843      C2844   1.404       .  A
C2843      H2862   1.085       .  S
C2844      C2845   1.415       .  A
C2844      C2856   1.443       .  S
C2845      C2846   1.408       .  A
C2846      H2861   1.085       .  S
C2847      C2848   1.406       .  A
C2847      C2852   1.412       .  A
C2848      C2849   1.403       .  A
C2848      H2863   1.085       .  S
C2849      C2850   1.412       .  A
C2849      C2853   1.443       .  S
C2850      C2851   1.405       .  A
C2851      C2852   1.402       .  A
C2851      H2864   1.085       .  S
C2852      C2854   1.444       .  S
C2853      N2857   1.157       .  T
C2854      N2858   1.157       .  T
C2855      N2860   1.157       .  T
C2865      C2866   1.412       .  A
C2865      C2870   1.400       .  A
C2865      C2879   1.445       .  S
C2866      C2867   1.406       .  A
C2866      C2871   1.495       .  S
C2867      C2868   1.406       .  A
C2867      H2886   1.085       .  S
C2868      C2869   1.416       .  A
C2868      C2880   1.444       .  S
C2869      C2870   1.407       .  A
C2870      H2885   1.085       .  S
C2871      C2872   1.406       .  A
C2871      C2876   1.412       .  A
C2872      C2873   1.404       .  A
C2872      H2887   1.085       .  S
C2873      C2874   1.413       .  A
C2873      C2877   1.443       .  S
C2874      C2875   1.407       .  A
C2875      C2876   1.402       .  A
C2875      H2888   1.083       .  S
C2876      C2878   1.444       .  S
C2877      N2881   1.157       .  T
C2878      N2882   1.157       .  T
C2879      N2884   1.157       .  T
C2880      N2883   1.157       .  T
C2889      C2890   1.411       .  A
C2889      C2894   1.407       .  A
C2889      C2903   1.444       .  S
C2890      C2891   1.401       .  A
C2890      C2895   1.488       .  S
C2891      C2892   1.397       .  A
C2891      H2910   1.085       .  S
C2892      C2893   1.415       .  A
C2892      C2904   1.444       .  S
C2893      C2894   1.410       .  A
C2894      H2909   1.085       .  S
C2895      C2896   1.401       .  A
C2895      C2900   1.408       .  A
C2896      C2897   1.403       .  A
C2896      H2911   1.085       .  S
C2897      C2898   1.422       .  A
C2897      C2901   1.444       .  S
C2898      C2899   1.410       .  A
C2899      C2900   1.402       .  A
C2899      H2912   1.084       .  S
C2900      C2902   1.444       .  S
C2902      N2906   1.157       .  T
C2903      N2908   1.157       .  T
C2904      N2907   1.157       .  T
C2913      C2914   1.407       .  A
C2913      C2918   1.395       .  A
C2913      C2927   1.444       .  S
C2914      C2915   1.402       .  A
C2914      C2919   1.472       .  S
C2915      C2916   1.394       .  A
C2915      H2934   1.085       .  S
C2916      C2917   1.412       .  A
C2916      C2928   1.446       .  S
C2917      C2918   1.405       .  A
C2918      H2933   1.085       .  S
C2919      C2920   1.401       .  A
C2919      C2924   1.409       .  A
C2920      C2921   1.397       .  A
C2920      H2935   1.085       .  S
C2921      C2922   1.413       .  A
C2921      C2925   1.445       .  S
C2922      C2923   1.399       .  A
C2923      C2924   1.390       .  A
C2923      H2936   1.083       .  S
C2924      C2926   1.444       .  S
C2925      N2929   1.157       .  T
C2926      N2930   1.157       .  T
C2927      N2932   1.157       .  T
C2928      N2931   1.157       .  T
C2937      C2938   1.409       .  A
C2937      C2942   1.393       .  A
C2937      C2951   1.444       .  S
C2938      C2939   1.399       .  A
C2938      C2943   1.469       .  S
C2939      C2940   1.393       .  A
C2939      H2958   1.085       .  S
C2940      C2941   1.409       .  A
C2940      C2952   1.443       .  S
C2941      C2942   1.397       .  A
C2942      H2957   1.082       .  S
C2943      C2944   1.400       .  A
C2943      C2948   1.410       .  A
C2944      C2945   1.397       .  A
C2944      H2959   1.085       .  S
C2945      C2946   1.414       .  A
C2945      C2949   1.445       .  S
C2946      C2947   1.401       .  A
C2947      C2948   1.391       .  A
C2947      H2960   1.085       .  S
C2948      C2950   1.445       .  S
C2949      N2953   1.157       .  T
C2950      N2954   1.157       .  T
C2951      N2956   1.157       .  T
C2952      N2955   1.157       .  T
C2961      C2962   1.408       .  A
C2961      C2966   1.400       .  A
C2961      C2975   1.444       .  S
C2962      C2963   1.399       .  A
C2962      C2967   1.471       .  S
C2963      C2964   1.392       .  A
C2963      H2982   1.085       .  S
C2964      C2965   1.410       .  A
C2964      C2976   1.445       .  S
C2965      C2966   1.403       .  A
C2966      H2981   1.082       .  S
C2967      C2968   1.401       .  A
C2967      C2972   1.407       .  A
C2968      C2969   1.397       .  A
C2968      H2983   1.085       .  S
C2969      C2970   1.413       .  A
C2969      C2973   1.444       .  S
C2970      C2971   1.405       .  A
C2971      C2972   1.395       .  A
C2971      H2984   1.084       .  S
C2972      C2974   1.445       .  S
C2973      N2977   1.157       .  T
C2974      N2978   1.157       .  T
C2975      N2980   1.157       .  T
C2985      C2986   1.415       .  A
C2985      C2990   1.398       .  A
C2985      C2999   1.445       .  S
C2986      C2987   1.404       .  A
C2986      C2991   1.491       .  S
C2988      C3000   1.444       .  S
C2989      C2990   1.402       .  A
C2990      H3005   1.085       .  S
C2991      C2992   1.401       .  A
C2991      C2996   1.412       .  A
C2992      C2993   1.396       .  A
C2992      H3007   1.085       .  S
C2993      C2994   1.417       .  A
C2993      C2997   1.445       .  S
C2994      C2995   1.408       .  A
C2995      C2996   1.407       .  A
C2995      H3008   1.085       .  S
C2997      N3001   1.157       .  T
C2998      N3002   1.157       .  T
C2999      N3004   1.157       .  T
C3000      N3003   1.157       .  T
C3009      C3010   1.408       .  A
C3009      C3014   1.401       .  A
C3009      C3023   1.444       .  S
C3010      C3011   1.402       .  A
C3010      C3015   1.487       .  S
C3011      C3012   1.403       .  A
C3012      C3013   1.418       .  A
C3012      C3024   1.444   1_655  S
C3013      C3014   1.411       .  A
C3014      H3029   1.084       .  S
C3015      C3016   1.402       .  A
C3015      C3020   1.412       .  A
C3016      C3017   1.400       .  A
C3016      H3031   1.085       .  S
C3017      C3018   1.415       .  A
C3017      C3021   1.445       .  S
C3018      C3019   1.403       .  A
C3019      C3020   1.403       .  A
C3020      C3022   1.443   1_556  S
C3021      N3025   1.157       .  T
C3022      N3026   1.157       .  T
C3023      N3028   1.157       .  T
C3033      C3034   1.415       .  A
C3033      C3038   1.403       .  A
C3033      C3047   1.444       .  S
C3034      C3035   1.410       .  A
C3034      C3039   1.503       .  S
C3035      C3036   1.407   1_556  A
C3035      H3054   1.083   1_556  S
C3036      C3037   1.411   1_554  A
C3036      C3048   1.444       .  S
C3037      C3038   1.402       .  A
C3038      H3053   1.085       .  S
C3039      C3040   1.408       .  A
C3039      C3044   1.412       .  A
C3040      C3041   1.408       .  A
C3040      H3055   1.085       .  S
C3041      C3042   1.417       .  A
C3041      C3045   1.444       .  S
C3042      C3043   1.411       .  A
C3043      C3044   1.403       .  A
C3043      H3056   1.084       .  S
C3045      N3049   1.157       .  T
C3046      N3050   1.157       .  T
C3047      N3052   1.157       .  T
